CHEMBL3192_lig993
                    3D
 Schrodinger Suite 2021-1.
 34 35  0  0  1  0            999 V2000
  -25.1469   30.1650  -44.6352 C   0  0  0  0  0  0
  -25.1466   31.4550  -45.1827 C   0  0  0  0  0  0
  -25.8367   32.4759  -44.5140 C   0  0  0  0  0  0
  -26.4883   32.2181  -43.3110 C   0  0  0  0  0  0
  -26.4672   30.9336  -42.7630 C   0  0  0  0  0  0
  -25.8130   29.9057  -43.4421 C   0  0  0  0  0  0
  -27.1079   30.6538  -41.4471 C   0  0  0  0  0  0
  -26.7022   29.5663  -40.7418 O   0  0  0  0  0  0
  -27.3983   29.6973  -39.5882 C   0  0  0  0  0  0
  -28.2060   30.7272  -39.5877 N   0  0  0  0  0  0
  -27.9977   31.3708  -40.7994 N   0  0  0  0  0  0
  -27.1051   28.7572  -38.4407 C   0  0  0  0  0  0
  -27.8130   27.4724  -38.3810 N   0  0  0  0  0  0
  -29.0577   27.1998  -38.7810 C   0  0  0  0  0  0
  -29.7706   25.9349  -38.2436 C   0  0  2  0  0  0
  -29.6374   27.8550  -39.6282 O   0  0  0  0  0  0
  -29.4130   24.8690  -39.1810 N   0  0  0  0  0  0
  -24.4201   31.7373  -46.4445 N   0  3  0  0  0  0
  -24.5827   32.8281  -46.9834 O   0  0  0  0  0  0
  -23.6819   30.8690  -46.9011 O   0  5  0  0  0  0
  -31.2943   26.0690  -38.0617 C   0  0  0  0  0  0
  -24.6269   29.3572  -45.1286 H   0  0  0  0  0  0
  -25.8549   33.4808  -44.9126 H   0  0  0  0  0  0
  -26.9915   33.0246  -42.7974 H   0  0  0  0  0  0
  -25.8130   28.9053  -43.0361 H   0  0  0  0  0  0
  -27.3106   29.2690  -37.5071 H   0  0  0  0  0  0
  -26.0347   28.5735  -38.3958 H   0  0  0  0  0  0
  -27.4045   26.7950  -37.7527 H   0  0  0  0  0  0
  -29.4130   25.7129  -37.2410 H   0  0  0  0  0  0
  -28.3853   24.8456  -39.1868 H   0  0  0  0  0  0
  -29.5813   23.9535  -38.7372 H   0  0  0  0  0  0
  -31.5324   26.7977  -37.2837 H   0  0  0  0  0  0
  -31.7334   25.1218  -37.7434 H   0  0  0  0  0  0
  -31.8054   26.3748  -38.9746 H   0  0  0  0  0  0
  1  2  2  0  0  0
  1  6  1  0  0  0
  1 22  1  0  0  0
  2  3  1  0  0  0
  2 18  1  0  0  0
  3  4  2  0  0  0
  3 23  1  0  0  0
  4  5  1  0  0  0
  4 24  1  0  0  0
  5  6  2  0  0  0
  5  7  1  0  0  0
  6 25  1  0  0  0
  7  8  1  0  0  0
  7 11  2  0  0  0
  8  9  1  0  0  0
  9 10  2  0  0  0
  9 12  1  0  0  0
 10 11  1  0  0  0
 12 13  1  0  0  0
 12 26  1  0  0  0
 12 27  1  0  0  0
 13 14  1  0  0  0
 13 28  1  0  0  0
 14 15  1  0  0  0
 14 16  2  0  0  0
 15 17  1  0  0  0
 15 21  1  0  0  0
 15 29  1  0  0  0
 17 30  1  0  0  0
 17 31  1  0  0  0
 18 19  2  0  0  0
 18 20  1  0  0  0
 21 32  1  0  0  0
 21 33  1  0  0  0
 21 34  1  0  0  0
M  CHG  2  18   1  20  -1
M  END
> <s_m_entry_id>
52783

> <s_m_entry_name>
dock_pv.2

> <s_m_Source_Path>
/home/csk/Desktop/cluster/DUD-E-result/hdac8

> <s_m_Source_File>
dock_pv.maegz

> <i_m_Source_File_Index>
2

> <chembl_id>
CHEMBL3984879

> <chembl_pref_name>
None

> <i_lp_mmshare_version>
53161

> <i_f3d_flags>
0

> <r_lp_tautomer_probability>
1

> <s_lp_Force_Field>
OPLS_2005

> <r_lp_Energy>
8.150156

> <b_lp_Chiralities_Consistent>
1

> <s_lp_Variant>
CHEMBL3192_lig993-1

> <s_i_glide_gridfile>
glide-grid_3f07

> <i_i_glide_lignum>
1055

> <i_i_glide_rotatable_bonds>
6

> <r_i_docking_score>
-8.95683871882745

> <r_i_glide_ligand_efficiency>
-0.426516129467974

> <r_i_glide_ligand_efficiency_sa>
-1.1767256600115

> <r_i_glide_ligand_efficiency_ln>
-2.21456027423328

> <r_i_glide_gscore>
-8.95683871882745

> <r_i_glide_lipo>
-1.13121754625758

> <r_i_glide_hbond>
-0.849677768250412

> <r_i_glide_metal>
-2.3

> <r_i_glide_rewards>
-1.41773396679608

> <r_i_glide_evdw>
-4.85617303848267

> <r_i_glide_ecoul>
-25.0704193115234

> <r_i_glide_erotb>
0.859949018245841

> <r_i_glide_esite>
-0.114786907116568

> <r_i_glide_emodel>
-46.1924664572924

> <r_i_glide_energy>
-29.9265923500061

> <r_i_glide_einternal>
9.94069576263428

> <i_i_glide_confnum>
4

> <i_i_glide_posenum>
339

> <r_i_glide_eff_state_penalty>
0

> <s_user_duplicate_titles>
CHEMBL3192_lig993

> <s_m_subgroup_title>
dock_pv

> <s_m_subgroupid>
dock_pv

> <b_m_subgroup_collapsed>
1

$$$$
CHEMBL3192_lig66
                    3D
 Schrodinger Suite 2021-1.
 33 35  0  0  1  0            999 V2000
  -26.0356   31.3752  -41.0102 C   0  0  0  0  0  0
  -29.4130   27.2124  -38.8092 C   0  0  0  0  0  0
  -25.5120   31.1077  -42.3165 C   0  0  0  0  0  0
  -26.9377   30.4195  -40.3175 C   0  0  0  0  0  0
  -28.5705   28.3938  -39.2495 C   0  0  0  0  0  0
  -30.2130   26.6789  -39.5810 O   0  0  0  0  0  0
  -29.4130   26.8690  -37.5229 N   0  0  0  0  0  0
  -26.4799   29.6265  -39.2622 C   0  0  0  0  0  0
  -28.2433   30.2586  -40.7716 C   0  0  0  0  0  0
  -27.2860   28.6116  -38.7418 C   0  0  0  0  0  0
  -29.0538   29.2690  -40.2345 C   0  0  0  0  0  0
  -24.6372   32.0575  -42.9342 C   0  0  0  0  0  0
  -30.2130   25.7864  -37.1015 O   0  0  0  0  0  0
  -25.6864   32.5675  -40.3810 C   0  0  0  0  0  0
  -25.8130   29.9155  -43.0278 C   0  0  0  0  0  0
  -24.8412   33.4912  -40.9819 C   0  0  0  0  0  0
  -24.3158   33.2502  -42.2450 C   0  0  0  0  0  0
  -24.1017   31.7824  -44.2183 C   0  0  0  0  0  0
  -25.2632   29.6690  -44.2806 C   0  0  0  0  0  0
  -24.4155   30.5958  -44.8738 C   0  0  0  0  0  0
  -28.8397   27.2657  -36.7810 H   0  0  0  0  0  0
  -25.4697   29.7459  -38.8958 H   0  0  0  0  0  0
  -28.6130   30.8691  -41.5811 H   0  0  0  0  0  0
  -26.8808   27.9635  -37.9810 H   0  0  0  0  0  0
  -30.0467   29.1511  -40.6432 H   0  0  0  0  0  0
  -29.5818   25.0753  -36.9472 H   0  0  0  0  0  0
  -26.0737   32.7849  -39.3959 H   0  0  0  0  0  0
  -26.4500   29.1767  -42.5720 H   0  0  0  0  0  0
  -24.5857   34.3971  -40.4498 H   0  0  0  0  0  0
  -23.6525   33.9709  -42.7014 H   0  0  0  0  0  0
  -23.4387   32.4981  -44.6832 H   0  0  0  0  0  0
  -25.4862   28.7396  -44.7810 H   0  0  0  0  0  0
  -23.9942   30.3936  -45.8478 H   0  0  0  0  0  0
  1  3  2  0  0  0
  1  4  1  0  0  0
  1 14  1  0  0  0
  2  5  1  0  0  0
  2  6  2  0  0  0
  2  7  1  0  0  0
  3 12  1  0  0  0
  3 15  1  0  0  0
  4  8  1  0  0  0
  4  9  2  0  0  0
  5 11  2  0  0  0
  5 10  1  0  0  0
  7 13  1  0  0  0
  7 21  1  0  0  0
  8 10  2  0  0  0
  8 22  1  0  0  0
  9 11  1  0  0  0
  9 23  1  0  0  0
 10 24  1  0  0  0
 11 25  1  0  0  0
 12 18  1  0  0  0
 12 17  2  0  0  0
 13 26  1  0  0  0
 14 16  2  0  0  0
 14 27  1  0  0  0
 15 19  2  0  0  0
 15 28  1  0  0  0
 16 17  1  0  0  0
 16 29  1  0  0  0
 17 30  1  0  0  0
 18 20  2  0  0  0
 18 31  1  0  0  0
 19 20  1  0  0  0
 19 32  1  0  0  0
 20 33  1  0  0  0
M  END
> <s_m_entry_id>
52784

> <s_m_entry_name>
dock_pv.3

> <s_m_Source_Path>
/home/csk/Desktop/cluster/DUD-E-result/hdac8

> <s_m_Source_File>
dock_pv.maegz

> <i_m_Source_File_Index>
3

> <chembl_id>
CHEMBL156887

> <chembl_pref_name>
None

> <i_lp_mmshare_version>
53161

> <i_f3d_flags>
0

> <r_lp_tautomer_probability>
1

> <s_lp_Force_Field>
OPLS_2005

> <r_lp_Energy>
30.011677

> <b_lp_Chiralities_Consistent>
1

> <s_lp_Variant>
CHEMBL3192_lig66-1

> <s_i_glide_gridfile>
glide-grid_3f07

> <i_i_glide_lignum>
68

> <i_i_glide_rotatable_bonds>
4

> <r_i_docking_score>
-8.86947500549629

> <r_i_glide_ligand_efficiency>
-0.443473750274814

> <r_i_glide_ligand_efficiency_sa>
-1.20377295904131

> <r_i_glide_ligand_efficiency_ln>
-2.21973705901156

> <r_i_glide_gscore>
-8.86947500549629

> <r_i_glide_lipo>
-1.56439784616239

> <r_i_glide_hbond>
-0.608

> <r_i_glide_metal>
-2.3

> <r_i_glide_rewards>
-1.93135818772776

> <r_i_glide_evdw>
-20.1497173309326

> <r_i_glide_ecoul>
-13.5110101699829

> <r_i_glide_erotb>
0.768418420437928

> <r_i_glide_esite>
-0.2

> <r_i_glide_emodel>
-51.957470038903

> <r_i_glide_energy>
-33.6607275009155

> <r_i_glide_einternal>
3.26222133636475

> <i_i_glide_confnum>
2

> <i_i_glide_posenum>
321

> <r_i_glide_eff_state_penalty>
0

> <s_user_duplicate_titles>
CHEMBL3192_lig66,256764

> <s_m_subgroup_title>
dock_pv

> <s_m_subgroupid>
dock_pv

> <b_m_subgroup_collapsed>
1

$$$$
CHEMBL3192_lig552
                    3D
 Schrodinger Suite 2021-1.
 39 41  0  0  1  0            999 V2000
  -28.4175   28.5786  -38.6754 C   0  0  0  0  0  0
  -28.6583   27.2869  -38.9848 C   0  0  0  0  0  0
  -29.7635   26.5446  -38.4301 C   0  0  0  0  0  0
  -30.6134   26.0690  -39.1810 O   0  0  0  0  0  0
  -29.8130   26.4690  -37.0911 N   0  0  0  0  0  0
  -30.8955   25.8035  -36.4941 O   0  0  0  0  0  0
  -27.3526   29.4180  -39.2563 C   0  0  0  0  0  0
  -26.5853   30.2291  -38.4166 C   0  0  0  0  0  0
  -25.5723   31.0354  -38.9315 C   0  0  0  0  0  0
  -27.1053   29.4505  -40.6349 C   0  0  0  0  0  0
  -26.1025   30.2796  -41.1534 C   0  0  0  0  0  0
  -25.3342   31.0641  -40.2989 C   0  0  0  0  0  0
  -24.3334   31.9042  -40.7810 N   0  0  0  0  0  0
  -24.1214   32.0112  -42.0388 C   0  0  0  0  0  0
  -24.8263   31.2594  -42.9819 N   0  0  0  0  0  0
  -25.8277   30.3596  -42.6409 C   0  0  0  0  0  0
  -24.5617   31.4159  -44.3741 C   0  0  0  0  0  0
  -25.5518   31.9296  -45.2277 C   0  0  0  0  0  0
  -25.2878   32.1014  -46.5834 C   0  0  0  0  0  0
  -24.0325   31.7737  -47.0890 C   0  0  0  0  0  0
  -23.0403   31.2690  -46.2527 C   0  0  0  0  0  0
  -23.3056   31.0777  -44.8993 C   0  0  0  0  0  0
  -26.4489   29.6690  -43.4542 O   0  0  0  0  0  0
  -23.0528   33.0150  -42.4607 C   0  0  0  0  0  0
  -29.0725   29.0820  -37.9810 H   0  0  0  0  0  0
  -28.0282   26.7470  -39.6757 H   0  0  0  0  0  0
  -29.1673   26.8836  -36.4227 H   0  0  0  0  0  0
  -31.4026   26.5100  -36.0834 H   0  0  0  0  0  0
  -26.7767   30.2521  -37.3574 H   0  0  0  0  0  0
  -24.9887   31.6690  -38.2803 H   0  0  0  0  0  0
  -27.7255   28.8690  -41.2949 H   0  0  0  0  0  0
  -26.5257   32.1958  -44.8420 H   0  0  0  0  0  0
  -26.0519   32.4943  -47.2384 H   0  0  0  0  0  0
  -23.8251   31.9163  -48.1395 H   0  0  0  0  0  0
  -22.0681   31.0199  -46.6533 H   0  0  0  0  0  0
  -22.5275   30.6797  -44.2635 H   0  0  0  0  0  0
  -22.7845   33.6878  -41.6441 H   0  0  0  0  0  0
  -22.1393   32.5087  -42.7693 H   0  0  0  0  0  0
  -23.3962   33.6408  -43.2843 H   0  0  0  0  0  0
  1  2  2  0  0  0
  1  7  1  0  0  0
  1 25  1  0  0  0
  2  3  1  0  0  0
  2 26  1  0  0  0
  3  4  2  0  0  0
  3  5  1  0  0  0
  5  6  1  0  0  0
  5 27  1  0  0  0
  6 28  1  0  0  0
  7  8  2  0  0  0
  7 10  1  0  0  0
  8  9  1  0  0  0
  8 29  1  0  0  0
  9 12  2  0  0  0
  9 30  1  0  0  0
 10 11  2  0  0  0
 10 31  1  0  0  0
 11 12  1  0  0  0
 11 16  1  0  0  0
 12 13  1  0  0  0
 13 14  2  0  0  0
 14 15  1  0  0  0
 14 24  1  0  0  0
 15 16  1  0  0  0
 15 17  1  0  0  0
 16 23  2  0  0  0
 17 18  2  0  0  0
 17 22  1  0  0  0
 18 19  1  0  0  0
 18 32  1  0  0  0
 19 20  2  0  0  0
 19 33  1  0  0  0
 20 21  1  0  0  0
 20 34  1  0  0  0
 21 22  2  0  0  0
 21 35  1  0  0  0
 22 36  1  0  0  0
 24 37  1  0  0  0
 24 38  1  0  0  0
 24 39  1  0  0  0
M  END
> <s_m_entry_id>
52785

> <s_m_entry_name>
dock_pv.4

> <s_m_Source_Path>
/home/csk/Desktop/cluster/DUD-E-result/hdac8

> <s_m_Source_File>
dock_pv.maegz

> <i_m_Source_File_Index>
4

> <chembl_id>
CHEMBL2425954

> <chembl_pref_name>
None

> <i_lp_mmshare_version>
53161

> <i_f3d_flags>
0

> <r_lp_tautomer_probability>
1

> <s_lp_Force_Field>
OPLS_2005

> <r_lp_Energy>
49.097813

> <b_lp_Chiralities_Consistent>
1

> <s_lp_Variant>
CHEMBL3192_lig552-1

> <s_i_glide_gridfile>
glide-grid_3f07

> <i_i_glide_lignum>
573

> <i_i_glide_rotatable_bonds>
5

> <r_i_docking_score>
-8.81087307723079

> <r_i_glide_ligand_efficiency>
-0.367119711551283

> <r_i_glide_ligand_efficiency_sa>
-1.05895649135063

> <r_i_glide_ligand_efficiency_ln>
-2.108846232002

> <r_i_glide_gscore>
-8.81087307723079

> <r_i_glide_lipo>
-1.11868042391321

> <r_i_glide_hbond>
-0.763725797939537

> <r_i_glide_metal>
-2.3

> <r_i_glide_rewards>
-1.39780693523732

> <r_i_glide_evdw>
-30.0069103240967

> <r_i_glide_ecoul>
-15.2674884796143

> <r_i_glide_erotb>
0.723856399568153

> <r_i_glide_esite>
-0.164047531561906

> <r_i_glide_emodel>
-73.0150028097817

> <r_i_glide_energy>
-45.2743988037109

> <r_i_glide_einternal>
5.98048400878906

> <i_i_glide_confnum>
48

> <i_i_glide_posenum>
150

> <r_i_glide_eff_state_penalty>
0

> <s_user_duplicate_titles>
CHEMBL3192_lig552

> <s_m_subgroup_title>
dock_pv

> <s_m_subgroupid>
dock_pv

> <b_m_subgroup_collapsed>
1

$$$$
CHEMBL3192_lig574
                    3D
 Schrodinger Suite 2021-1.
 54 55  0  0  1  0            999 V2000
  -26.5049   31.4700  -47.8743 C   0  0  0  0  0  0
  -27.4172   32.4703  -48.2007 C   0  0  0  0  0  0
  -27.9786   33.2718  -47.2095 C   0  0  0  0  0  0
  -27.6174   33.0767  -45.8789 C   0  0  0  0  0  0
  -26.7088   32.0708  -45.5397 C   0  0  0  0  0  0
  -26.1459   31.2691  -46.5440 C   0  0  0  0  0  0
  -26.3899   31.9504  -44.1776 N   0  0  0  0  0  0
  -25.9406   30.8686  -43.5060 C   0  0  0  0  0  0
  -25.6682   31.0213  -41.9847 C   0  0  2  0  0  0
  -25.7445   29.7591  -44.0081 O   0  0  0  0  0  0
  -26.6407   30.1126  -41.1859 C   0  0  0  0  0  0
  -25.6002   32.4063  -41.4662 N   0  0  0  0  0  0
  -26.3079   29.9840  -39.6885 C   0  0  0  0  0  0
  -27.5046   29.5485  -38.8314 C   0  0  0  0  0  0
  -26.6126   33.2796  -41.3008 C   0  0  0  0  0  0
  -26.2365   34.6831  -40.7898 C   0  0  2  0  0  0
  -27.7790   33.0072  -41.5808 O   0  0  0  0  0  0
  -28.2386   28.2800  -39.3175 C   0  0  0  0  0  0
  -28.9057   27.5461  -38.1400 C   0  0  0  0  0  0
  -29.9188   26.4561  -38.4901 C   0  0  0  0  0  0
  -30.1591   25.5366  -37.5425 N   0  0  0  0  0  0
  -30.5009   26.4690  -39.5810 O   0  0  0  0  0  0
  -31.0131   24.4693  -37.8505 O   0  0  0  0  0  0
  -27.3828   35.5306  -40.2148 C   0  0  0  0  0  0
  -27.2649   36.7428  -40.7810 N   0  0  0  0  0  0
  -26.0585   36.9494  -41.5675 C   0  0  0  0  0  0
  -25.6411   35.5345  -41.9156 C   0  0  0  0  0  0
  -28.2130   35.1819  -39.3788 O   0  0  0  0  0  0
  -26.0771   30.8534  -48.6502 H   0  0  0  0  0  0
  -27.7024   32.6183  -49.2321 H   0  0  0  0  0  0
  -28.6940   34.0379  -47.4726 H   0  0  0  0  0  0
  -28.0578   33.7032  -45.1159 H   0  0  0  0  0  0
  -25.4251   30.5000  -46.3125 H   0  0  0  0  0  0
  -26.6048   32.7556  -43.6093 H   0  0  0  0  0  0
  -24.6595   30.6309  -41.8403 H   0  0  0  0  0  0
  -27.6627   30.4762  -41.3039 H   0  0  0  0  0  0
  -26.6378   29.1043  -41.6032 H   0  0  0  0  0  0
  -24.6727   32.7083  -41.2024 H   0  0  0  0  0  0
  -25.4915   29.2719  -39.5608 H   0  0  0  0  0  0
  -25.9371   30.9299  -39.2909 H   0  0  0  0  0  0
  -27.1366   29.4034  -37.8145 H   0  0  0  0  0  0
  -28.2215   30.3695  -38.7808 H   0  0  0  0  0  0
  -25.5203   34.5302  -39.9811 H   0  0  0  0  0  0
  -28.9681   28.5634  -40.0777 H   0  0  0  0  0  0
  -27.5335   27.5998  -39.8007 H   0  0  0  0  0  0
  -28.0951   27.0960  -37.5810 H   0  0  0  0  0  0
  -29.4131   28.2593  -37.4884 H   0  0  0  0  0  0
  -29.7304   25.4582  -36.6295 H   0  0  0  0  0  0
  -30.4185   23.7056  -37.9168 H   0  0  0  0  0  0
  -27.8148   37.5229  -40.4491 H   0  0  0  0  0  0
  -26.2597   37.5557  -42.4522 H   0  0  0  0  0  0
  -25.3081   37.4681  -40.9667 H   0  0  0  0  0  0
  -24.5592   35.4329  -42.0152 H   0  0  0  0  0  0
  -26.0753   35.2815  -42.8867 H   0  0  0  0  0  0
  1  2  2  0  0  0
  1  6  1  0  0  0
  1 29  1  0  0  0
  2  3  1  0  0  0
  2 30  1  0  0  0
  3  4  2  0  0  0
  3 31  1  0  0  0
  4  5  1  0  0  0
  4 32  1  0  0  0
  5  6  2  0  0  0
  5  7  1  0  0  0
  6 33  1  0  0  0
  7  8  1  0  0  0
  7 34  1  0  0  0
  8  9  1  0  0  0
  8 10  2  0  0  0
  9 11  1  0  0  0
  9 12  1  0  0  0
  9 35  1  0  0  0
 11 13  1  0  0  0
 11 36  1  0  0  0
 11 37  1  0  0  0
 12 15  1  0  0  0
 12 38  1  0  0  0
 13 14  1  0  0  0
 13 39  1  0  0  0
 13 40  1  0  0  0
 14 18  1  0  0  0
 14 41  1  0  0  0
 14 42  1  0  0  0
 15 16  1  0  0  0
 15 17  2  0  0  0
 16 24  1  0  0  0
 16 27  1  0  0  0
 16 43  1  0  0  0
 18 19  1  0  0  0
 18 44  1  0  0  0
 18 45  1  0  0  0
 19 20  1  0  0  0
 19 46  1  0  0  0
 19 47  1  0  0  0
 20 21  1  0  0  0
 20 22  2  0  0  0
 21 23  1  0  0  0
 21 48  1  0  0  0
 23 49  1  0  0  0
 24 25  1  0  0  0
 24 28  2  0  0  0
 25 26  1  0  0  0
 25 50  1  0  0  0
 26 27  1  0  0  0
 26 51  1  0  0  0
 26 52  1  0  0  0
 27 53  1  0  0  0
 27 54  1  0  0  0
M  END
> <s_m_entry_id>
52786

> <s_m_entry_name>
dock_pv.5

> <s_m_Source_Path>
/home/csk/Desktop/cluster/DUD-E-result/hdac8

> <s_m_Source_File>
dock_pv.maegz

> <i_m_Source_File_Index>
5

> <chembl_id>
CHEMBL3098693

> <chembl_pref_name>
None

> <i_lp_mmshare_version>
53161

> <i_f3d_flags>
0

> <r_lp_tautomer_probability>
1

> <s_lp_Force_Field>
OPLS_2005

> <r_lp_Energy>
32.089178

> <b_lp_Chiralities_Consistent>
1

> <s_lp_Variant>
CHEMBL3192_lig574-1

> <s_i_glide_gridfile>
glide-grid_3f07

> <i_i_glide_lignum>
598

> <i_i_glide_rotatable_bonds>
14

> <r_i_docking_score>
-8.79515310521585

> <r_i_glide_ligand_efficiency>
-0.314112610900566

> <r_i_glide_ligand_efficiency_sa>
-0.953830889128277

> <r_i_glide_ligand_efficiency_ln>
-2.03017957360008

> <r_i_glide_gscore>
-8.79515310521585

> <r_i_glide_lipo>
-1.24147555389489

> <r_i_glide_hbond>
-0.501433591659014

> <r_i_glide_metal>
-2.3

> <r_i_glide_rewards>
-0.825160931321364

> <r_i_glide_evdw>
-29.4751567840576

> <r_i_glide_ecoul>
-24.4429397583008

> <r_i_glide_erotb>
1.40744517913091

> <r_i_glide_esite>
-0.1943294045235

> <r_i_glide_emodel>
-87.3567608888977

> <r_i_glide_energy>
-53.9180965423584

> <r_i_glide_einternal>
9.22870826721191

> <i_i_glide_confnum>
25

> <i_i_glide_posenum>
320

> <r_i_glide_eff_state_penalty>
0

> <s_user_duplicate_titles>
CHEMBL3192_lig574

> <s_m_subgroup_title>
dock_pv

> <s_m_subgroupid>
dock_pv

> <b_m_subgroup_collapsed>
1

$$$$
CHEMBL3192_lig717
                    3D
 Schrodinger Suite 2021-1.
 43 45  0  0  1  0            999 V2000
  -26.6148   33.0504  -39.9810 N   0  0  2  0  0  0
  -30.2130   26.7219  -39.5810 O   0  0  0  0  0  0
  -26.6456   34.0970  -42.2370 C   0  0  0  0  0  0
  -29.0096   29.3539  -40.1049 C   0  0  0  0  0  0
  -28.2156   30.4428  -40.4572 C   0  0  0  0  0  0
  -27.2825   28.5804  -38.6135 C   0  0  0  0  0  0
  -29.4130   27.2280  -38.7960 C   0  0  0  0  0  0
  -26.0525   31.7483  -40.3372 C   0  0  0  0  0  0
  -26.9244   33.1067  -45.5847 C   0  0  0  0  0  0
  -26.1571   33.4569  -43.2622 N   0  0  0  0  0  0
  -28.5484   28.4067  -39.1801 C   0  0  0  0  0  0
  -27.8174   34.7255  -42.4987 O   0  0  0  0  0  0
  -27.0512   33.6959  -44.2048 C   0  0  0  0  0  0
  -26.4864   29.6690  -38.9636 C   0  0  0  0  0  0
  -28.0611   34.4687  -43.8471 N   0  0  0  0  0  0
  -26.9491   30.6010  -39.8918 C   0  0  0  0  0  0
  -29.4130   26.8690  -37.5176 N   0  0  0  0  0  0
  -26.0991   34.1309  -40.8213 C   0  0  0  0  0  0
  -27.9403   33.2700  -46.5357 C   0  0  0  0  0  0
  -27.8130   32.7213  -47.8094 C   0  0  0  0  0  0
  -26.6688   31.9943  -48.1531 C   0  0  0  0  0  0
  -25.6542   31.8250  -47.2085 C   0  0  0  0  0  0
  -25.7819   32.3749  -45.9371 C   0  0  0  0  0  0
  -30.2130   25.7822  -37.1086 O   0  0  0  0  0  0
  -26.5029   31.3942  -49.5485 C   0  0  0  0  0  0
  -26.6130   30.0690  -49.4692 F   0  0  0  0  0  0
  -27.4139   31.8448  -50.4124 F   0  0  0  0  0  0
  -25.2954   31.6849  -50.0347 F   0  0  0  0  0  0
  -26.2560   33.2713  -39.0477 H   0  0  0  0  0  0
  -29.9834   29.2602  -40.5630 H   0  0  0  0  0  0
  -28.5751   31.1591  -41.1810 H   0  0  0  0  0  0
  -26.9018   27.8597  -37.9074 H   0  0  0  0  0  0
  -25.0692   31.6556  -39.8717 H   0  0  0  0  0  0
  -25.8923   31.6394  -41.4098 H   0  0  0  0  0  0
  -25.5031   29.7721  -38.5268 H   0  0  0  0  0  0
  -28.8273   27.2521  -36.7811 H   0  0  0  0  0  0
  -26.3794   35.0771  -40.3565 H   0  0  0  0  0  0
  -25.0074   34.1187  -40.8188 H   0  0  0  0  0  0
  -28.8377   33.8223  -46.2959 H   0  0  0  0  0  0
  -28.6153   32.8576  -48.5214 H   0  0  0  0  0  0
  -24.7618   31.2691  -47.4582 H   0  0  0  0  0  0
  -24.9798   32.2302  -45.2278 H   0  0  0  0  0  0
  -29.5823   25.0684  -36.9648 H   0  0  0  0  0  0
  1 18  1  0  0  0
  1  8  1  0  0  0
  1 29  1  0  0  0
  2  7  2  0  0  0
  3 12  1  0  0  0
  3 10  2  0  0  0
  3 18  1  0  0  0
  4  5  1  0  0  0
  4 11  2  0  0  0
  4 30  1  0  0  0
  5 16  2  0  0  0
  5 31  1  0  0  0
  6 14  2  0  0  0
  6 11  1  0  0  0
  6 32  1  0  0  0
  7 11  1  0  0  0
  7 17  1  0  0  0
  8 16  1  0  0  0
  8 33  1  0  0  0
  8 34  1  0  0  0
  9 13  1  0  0  0
  9 19  1  0  0  0
  9 23  2  0  0  0
 10 13  1  0  0  0
 12 15  1  0  0  0
 13 15  2  0  0  0
 14 16  1  0  0  0
 14 35  1  0  0  0
 17 24  1  0  0  0
 17 36  1  0  0  0
 18 37  1  0  0  0
 18 38  1  0  0  0
 19 20  2  0  0  0
 19 39  1  0  0  0
 20 21  1  0  0  0
 20 40  1  0  0  0
 21 22  2  0  0  0
 21 25  1  0  0  0
 22 23  1  0  0  0
 22 41  1  0  0  0
 23 42  1  0  0  0
 24 43  1  0  0  0
 25 26  1  0  0  0
 25 27  1  0  0  0
 25 28  1  0  0  0
M  END
> <s_m_entry_id>
52787

> <s_m_entry_name>
dock_pv.6

> <s_m_Source_Path>
/home/csk/Desktop/cluster/DUD-E-result/hdac8

> <s_m_Source_File>
dock_pv.maegz

> <i_m_Source_File_Index>
6

> <chembl_id>
CHEMBL3421750

> <chembl_pref_name>
None

> <i_lp_mmshare_version>
53161

> <i_f3d_flags>
0

> <r_lp_tautomer_probability>
1

> <s_lp_Force_Field>
OPLS_2005

> <r_lp_Energy>
31.474927

> <b_lp_Chiralities_Consistent>
1

> <s_lp_Variant>
CHEMBL3192_lig717-1

> <s_i_glide_gridfile>
glide-grid_3f07

> <i_i_glide_lignum>
761

> <i_i_glide_rotatable_bonds>
9

> <r_i_docking_score>
-8.74651258524285

> <r_i_glide_ligand_efficiency>
-0.312375449472959

> <r_i_glide_ligand_efficiency_sa>
-0.948555843900697

> <r_i_glide_ligand_efficiency_ln>
-2.01895191344259

> <r_i_glide_gscore>
-8.74651258524285

> <r_i_glide_lipo>
-1.43067219457194

> <r_i_glide_hbond>
-0.72

> <r_i_glide_metal>
-2.3

> <r_i_glide_rewards>
-1.02902999529253

> <r_i_glide_evdw>
-24.638650894165

> <r_i_glide_ecoul>
-17.6359348297119

> <r_i_glide_erotb>
0.887876392411371

> <r_i_glide_esite>
-0.27736401862472

> <r_i_glide_emodel>
-68.4807303175659

> <r_i_glide_energy>
-42.274585723877

> <r_i_glide_einternal>
3.0030152797699

> <i_i_glide_confnum>
94

> <i_i_glide_posenum>
94

> <r_i_glide_eff_state_penalty>
0

> <s_user_duplicate_titles>
CHEMBL3192_lig717

> <s_m_subgroup_title>
dock_pv

> <s_m_subgroupid>
dock_pv

> <b_m_subgroup_collapsed>
1

$$$$
CHEMBL3192_lig70
                    3D
 Schrodinger Suite 2021-1.
 42 44  0  0  1  0            999 V2000
  -27.1545   28.7653  -38.4463 C   0  0  0  0  0  0
  -28.4186   28.3286  -38.8307 C   0  0  0  0  0  0
  -29.0129   28.9043  -39.9621 C   0  0  0  0  0  0
  -28.3299   29.8594  -40.7055 C   0  0  0  0  0  0
  -27.0300   30.2400  -40.3577 C   0  0  0  0  0  0
  -26.4587   29.7061  -39.1956 C   0  0  0  0  0  0
  -26.2592   31.1603  -41.2738 C   0  0  0  0  0  0
  -24.9148   31.0632  -41.2034 N   0  0  0  0  0  0
  -26.8543   31.8836  -42.0770 O   0  0  0  0  0  0
  -23.9814   31.5437  -42.1405 C   0  0  0  0  0  0
  -24.2307   31.4336  -43.5177 C   0  0  0  0  0  0
  -23.2744   31.8211  -44.4631 C   0  0  0  0  0  0
  -22.0452   32.3103  -44.0059 C   0  0  0  0  0  0
  -21.7820   32.4193  -42.6403 C   0  0  0  0  0  0
  -22.7410   32.0393  -41.7017 C   0  0  0  0  0  0
  -22.4286   32.1558  -40.3435 N   0  0  0  0  0  0
  -29.0074   27.3353  -38.0173 N   0  0  0  0  0  0
  -29.9943   26.4690  -38.3147 C   0  0  0  0  0  0
  -30.4008   25.4923  -37.2198 C   0  0  0  0  0  0
  -30.6132   26.4690  -39.3833 O   0  0  0  0  0  0
  -23.5328   31.7136  -45.9364 C   0  0  0  0  0  0
  -22.6139   31.6316  -46.9838 C   0  0  0  0  0  0
  -23.2024   31.5825  -48.2513 C   0  0  0  0  0  0
  -24.5852   31.6307  -48.1973 C   0  0  0  0  0  0
  -25.1639   31.7108  -46.5678 S   0  0  0  0  0  0
  -26.6782   28.3411  -37.5827 H   0  0  0  0  0  0
  -29.9967   28.6294  -40.3006 H   0  0  0  0  0  0
  -28.8093   30.2686  -41.5812 H   0  0  0  0  0  0
  -25.4659   29.9839  -38.8715 H   0  0  0  0  0  0
  -24.5165   30.5662  -40.4215 H   0  0  0  0  0  0
  -25.1702   31.0204  -43.8544 H   0  0  0  0  0  0
  -21.2828   32.6147  -44.7081 H   0  0  0  0  0  0
  -20.8246   32.8020  -42.3177 H   0  0  0  0  0  0
  -21.4880   32.4641  -40.1479 H   0  0  0  0  0  0
  -23.1393   32.5912  -39.7677 H   0  0  0  0  0  0
  -28.6048   27.2682  -37.0872 H   0  0  0  0  0  0
  -29.9136   24.5285  -37.3778 H   0  0  0  0  0  0
  -31.4823   25.3349  -37.2283 H   0  0  0  0  0  0
  -30.1212   25.8619  -36.2290 H   0  0  0  0  0  0
  -21.5444   31.6098  -46.8348 H   0  0  0  0  0  0
  -22.6382   31.5232  -49.1704 H   0  0  0  0  0  0
  -25.2832   31.6192  -49.0214 H   0  0  0  0  0  0
  1  6  1  0  0  0
  1  2  2  0  0  0
  1 26  1  0  0  0
  2 17  1  0  0  0
  2  3  1  0  0  0
  3  4  2  0  0  0
  3 27  1  0  0  0
  4  5  1  0  0  0
  4 28  1  0  0  0
  5  7  1  0  0  0
  5  6  2  0  0  0
  6 29  1  0  0  0
  7  8  1  0  0  0
  7  9  2  0  0  0
  8 10  1  0  0  0
  8 30  1  0  0  0
 10 15  1  0  0  0
 10 11  2  0  0  0
 11 12  1  0  0  0
 11 31  1  0  0  0
 12 13  2  0  0  0
 12 21  1  0  0  0
 13 14  1  0  0  0
 13 32  1  0  0  0
 14 15  2  0  0  0
 14 33  1  0  0  0
 15 16  1  0  0  0
 16 34  1  0  0  0
 16 35  1  0  0  0
 17 18  1  0  0  0
 17 36  1  0  0  0
 18 19  1  0  0  0
 18 20  2  0  0  0
 19 37  1  0  0  0
 19 38  1  0  0  0
 19 39  1  0  0  0
 21 22  2  0  0  0
 21 25  1  0  0  0
 22 23  1  0  0  0
 22 40  1  0  0  0
 23 24  2  0  0  0
 23 41  1  0  0  0
 24 25  1  0  0  0
 24 42  1  0  0  0
M  END
> <s_m_entry_id>
52788

> <s_m_entry_name>
dock_pv.7

> <s_m_Source_Path>
/home/csk/Desktop/cluster/DUD-E-result/hdac8

> <s_m_Source_File>
dock_pv.maegz

> <i_m_Source_File_Index>
7

> <chembl_id>
CHEMBL235842

> <chembl_pref_name>
None

> <i_lp_mmshare_version>
53161

> <i_f3d_flags>
0

> <r_lp_tautomer_probability>
1

> <s_lp_Force_Field>
OPLS_2005

> <r_lp_Energy>
26.254575

> <b_lp_Chiralities_Consistent>
1

> <s_lp_Variant>
CHEMBL3192_lig70-1

> <s_i_glide_gridfile>
glide-grid_3f07

> <i_i_glide_lignum>
72

> <i_i_glide_rotatable_bonds>
6

> <r_i_docking_score>
-8.58910053426057

> <r_i_glide_ligand_efficiency>
-0.343564021370423

> <r_i_glide_ligand_efficiency_sa>
-1.00458729162098

> <r_i_glide_ligand_efficiency_ln>
-2.0358742211923

> <r_i_glide_gscore>
-8.58910053426057

> <r_i_glide_lipo>
-1.21046589300291

> <r_i_glide_hbond>
-0.608

> <r_i_glide_metal>
-2.3

> <r_i_glide_rewards>
-1.19138806421385

> <r_i_glide_evdw>
-28.3034534454346

> <r_i_glide_ecoul>
-15.9172697067261

> <r_i_glide_erotb>
0.772185831350774

> <r_i_glide_esite>
-0.248669280113937

> <r_i_glide_emodel>
-68.0546996371292

> <r_i_glide_energy>
-44.2207231521606

> <r_i_glide_einternal>
8.30480098724365

> <i_i_glide_confnum>
36

> <i_i_glide_posenum>
332

> <r_i_glide_eff_state_penalty>
0

> <s_user_duplicate_titles>
CHEMBL3192_lig70

> <s_m_subgroup_title>
dock_pv

> <s_m_subgroupid>
dock_pv

> <b_m_subgroup_collapsed>
1

$$$$
CHEMBL3192_lig714
                    3D
 Schrodinger Suite 2021-1.
 40 42  0  0  1  0            999 V2000
  -26.6130   32.9904  -39.9810 N   0  0  2  0  0  0
  -30.2130   26.6742  -39.5810 O   0  0  0  0  0  0
  -27.0130   34.2614  -42.0709 C   0  0  0  0  0  0
  -29.0130   29.2692  -40.1824 C   0  0  0  0  0  0
  -28.2365   30.3528  -40.5766 C   0  0  0  0  0  0
  -27.2921   28.5844  -38.6457 C   0  0  0  0  0  0
  -29.4130   27.1964  -38.8010 C   0  0  0  0  0  0
  -26.1201   31.7144  -40.4951 C   0  0  0  0  0  0
  -27.9376   33.8654  -45.4203 C   0  0  0  0  0  0
  -26.7484   33.7833  -43.2558 N   0  0  0  0  0  0
  -28.5518   28.3691  -39.2134 C   0  0  0  0  0  0
  -28.2012   34.9099  -41.9986 O   0  0  0  0  0  0
  -27.7921   34.1844  -43.9608 C   0  0  0  0  0  0
  -26.5079   29.6690  -39.0398 C   0  0  0  0  0  0
  -28.7045   34.8690  -43.2967 N   0  0  0  0  0  0
  -26.9789   30.5548  -40.0108 C   0  0  0  0  0  0
  -29.4130   26.8690  -37.5135 N   0  0  0  0  0  0
  -26.1925   34.1223  -40.8030 C   0  0  0  0  0  0
  -28.7421   34.6639  -46.2440 C   0  0  0  0  0  0
  -28.8738   34.3708  -47.5984 C   0  0  0  0  0  0
  -28.2130   33.2689  -48.1336 C   0  0  0  0  0  0
  -27.4132   32.4629  -47.3279 C   0  0  0  0  0  0
  -27.2737   32.7627  -45.9754 C   0  0  0  0  0  0
  -30.2130   25.7913  -37.0827 O   0  0  0  0  0  0
  -26.1714   33.1577  -39.0722 H   0  0  0  0  0  0
  -29.9822   29.1439  -40.6426 H   0  0  0  0  0  0
  -28.6082   31.0309  -41.3300 H   0  0  0  0  0  0
  -26.9071   27.9011  -37.9057 H   0  0  0  0  0  0
  -25.0884   31.5758  -40.1660 H   0  0  0  0  0  0
  -26.1036   31.6924  -41.5861 H   0  0  0  0  0  0
  -25.5306   29.8096  -38.6002 H   0  0  0  0  0  0
  -28.8307   27.2676  -36.7810 H   0  0  0  0  0  0
  -26.3086   35.0281  -40.2060 H   0  0  0  0  0  0
  -25.1254   34.0572  -41.0246 H   0  0  0  0  0  0
  -29.2659   35.5183  -45.8404 H   0  0  0  0  0  0
  -29.5025   34.9839  -48.2275 H   0  0  0  0  0  0
  -28.3299   33.0312  -49.1809 H   0  0  0  0  0  0
  -26.9087   31.6063  -47.7501 H   0  0  0  0  0  0
  -26.6538   32.1287  -45.3581 H   0  0  0  0  0  0
  -29.5824   25.0815  -36.9210 H   0  0  0  0  0  0
  1 18  1  0  0  0
  1  8  1  0  0  0
  1 25  1  0  0  0
  2  7  2  0  0  0
  3 12  1  0  0  0
  3 10  2  0  0  0
  3 18  1  0  0  0
  4  5  1  0  0  0
  4 11  2  0  0  0
  4 26  1  0  0  0
  5 16  2  0  0  0
  5 27  1  0  0  0
  6 14  2  0  0  0
  6 11  1  0  0  0
  6 28  1  0  0  0
  7 11  1  0  0  0
  7 17  1  0  0  0
  8 16  1  0  0  0
  8 29  1  0  0  0
  8 30  1  0  0  0
  9 13  1  0  0  0
  9 19  1  0  0  0
  9 23  2  0  0  0
 10 13  1  0  0  0
 12 15  1  0  0  0
 13 15  2  0  0  0
 14 16  1  0  0  0
 14 31  1  0  0  0
 17 24  1  0  0  0
 17 32  1  0  0  0
 18 33  1  0  0  0
 18 34  1  0  0  0
 19 20  2  0  0  0
 19 35  1  0  0  0
 20 21  1  0  0  0
 20 36  1  0  0  0
 21 22  2  0  0  0
 21 37  1  0  0  0
 22 23  1  0  0  0
 22 38  1  0  0  0
 23 39  1  0  0  0
 24 40  1  0  0  0
M  END
> <s_m_entry_id>
52789

> <s_m_entry_name>
dock_pv.8

> <s_m_Source_Path>
/home/csk/Desktop/cluster/DUD-E-result/hdac8

> <s_m_Source_File>
dock_pv.maegz

> <i_m_Source_File_Index>
8

> <chembl_id>
CHEMBL3421747

> <chembl_pref_name>
None

> <i_lp_mmshare_version>
53161

> <i_f3d_flags>
0

> <r_lp_tautomer_probability>
1

> <s_lp_Force_Field>
OPLS_2005

> <r_lp_Energy>
36.065385

> <b_lp_Chiralities_Consistent>
1

> <s_lp_Variant>
CHEMBL3192_lig714-1

> <s_i_glide_gridfile>
glide-grid_3f07

> <i_i_glide_lignum>
758

> <i_i_glide_rotatable_bonds>
8

> <r_i_docking_score>
-8.58662033864137

> <r_i_glide_ligand_efficiency>
-0.35777584744339

> <r_i_glide_ligand_efficiency_sa>
-1.03200412338994

> <r_i_glide_ligand_efficiency_ln>
-2.0551722613699

> <r_i_glide_gscore>
-8.58662033864137

> <r_i_glide_lipo>
-1.39053243595367

> <r_i_glide_hbond>
-0.72

> <r_i_glide_metal>
-2.3

> <r_i_glide_rewards>
-1.49545306017669

> <r_i_glide_evdw>
-21.52707862854

> <r_i_glide_ecoul>
-17.6651268005371

> <r_i_glide_erotb>
1.24613173610359

> <r_i_glide_esite>
-0.200643627107035

> <r_i_glide_emodel>
-62.2915425773727

> <r_i_glide_energy>
-39.1922054290771

> <r_i_glide_einternal>
2.75923871994019

> <i_i_glide_confnum>
26

> <i_i_glide_posenum>
317

> <r_i_glide_eff_state_penalty>
0

> <s_user_duplicate_titles>
CHEMBL3192_lig714

> <s_m_subgroup_title>
dock_pv

> <s_m_subgroupid>
dock_pv

> <b_m_subgroup_collapsed>
1

$$$$
CHEMBL3192_lig530
                    3D
 Schrodinger Suite 2021-1.
 39 41  0  0  1  0            999 V2000
  -22.9624   31.6031  -43.9121 C   0  0  0  0  0  0
  -24.3622   31.5351  -43.8292 C   0  0  0  0  0  0
  -24.9853   31.5150  -42.6134 N   0  0  0  0  0  0
  -24.2075   31.5955  -41.4978 C   0  0  0  0  0  0
  -22.8536   31.6690  -41.5041 N   0  0  0  0  0  0
  -22.2464   31.6690  -42.7167 C   0  0  0  0  0  0
  -25.2455   31.5480  -45.0414 C   0  0  0  0  0  0
  -26.6131   31.8637  -44.9590 C   0  0  0  0  0  0
  -27.4128   31.8859  -46.1025 C   0  0  0  0  0  0
  -26.8265   31.5782  -47.3276 C   0  0  0  0  0  0
  -25.5128   31.2693  -47.4519 N   0  0  0  0  0  0
  -24.7520   31.2649  -46.3264 C   0  0  0  0  0  0
  -24.7964   31.6690  -40.2278 N   0  0  0  0  0  0
  -26.2291   31.8926  -40.0380 C   0  0  0  0  0  0
  -27.0117   30.6088  -39.7641 C   0  0  0  0  0  0
  -26.5746   29.6950  -38.8014 C   0  0  0  0  0  0
  -27.3461   28.5762  -38.4935 C   0  0  0  0  0  0
  -28.5647   28.3503  -39.1369 C   0  0  0  0  0  0
  -28.9943   29.2690  -40.1064 C   0  0  0  0  0  0
  -28.2239   30.3868  -40.4182 C   0  0  0  0  0  0
  -29.4130   27.1495  -38.7801 C   0  0  0  0  0  0
  -30.2130   26.6525  -39.5810 O   0  0  0  0  0  0
  -29.4418   26.7760  -37.4979 N   0  0  0  0  0  0
  -30.2331   25.6690  -37.1357 O   0  0  0  0  0  0
  -22.4345   31.6370  -44.8528 H   0  0  0  0  0  0
  -21.1676   31.7348  -42.7170 H   0  0  0  0  0  0
  -27.0668   32.1015  -44.0081 H   0  0  0  0  0  0
  -28.4617   32.1328  -46.0347 H   0  0  0  0  0  0
  -27.4141   31.5754  -48.2351 H   0  0  0  0  0  0
  -23.7170   31.0055  -46.4871 H   0  0  0  0  0  0
  -24.1819   31.9449  -39.4732 H   0  0  0  0  0  0
  -26.6523   32.4315  -40.8870 H   0  0  0  0  0  0
  -26.3459   32.5540  -39.1805 H   0  0  0  0  0  0
  -25.6395   29.8591  -38.2857 H   0  0  0  0  0  0
  -26.9993   27.8837  -37.7423 H   0  0  0  0  0  0
  -29.9324   29.1331  -40.6240 H   0  0  0  0  0  0
  -28.5779   31.0840  -41.1630 H   0  0  0  0  0  0
  -29.0130   27.2275  -36.6954 H   0  0  0  0  0  0
  -29.5929   24.9650  -36.9850 H   0  0  0  0  0  0
  1  2  2  0  0  0
  1  6  1  0  0  0
  1 25  1  0  0  0
  2  3  1  0  0  0
  2  7  1  0  0  0
  3  4  2  0  0  0
  4  5  1  0  0  0
  4 13  1  0  0  0
  5  6  2  0  0  0
  6 26  1  0  0  0
  7  8  2  0  0  0
  7 12  1  0  0  0
  8  9  1  0  0  0
  8 27  1  0  0  0
  9 10  2  0  0  0
  9 28  1  0  0  0
 10 11  1  0  0  0
 10 29  1  0  0  0
 11 12  2  0  0  0
 12 30  1  0  0  0
 13 14  1  0  0  0
 13 31  1  0  0  0
 14 15  1  0  0  0
 14 32  1  0  0  0
 14 33  1  0  0  0
 15 16  2  0  0  0
 15 20  1  0  0  0
 16 17  1  0  0  0
 16 34  1  0  0  0
 17 18  2  0  0  0
 17 35  1  0  0  0
 18 19  1  0  0  0
 18 21  1  0  0  0
 19 20  2  0  0  0
 19 36  1  0  0  0
 20 37  1  0  0  0
 21 22  2  0  0  0
 21 23  1  0  0  0
 23 24  1  0  0  0
 23 38  1  0  0  0
 24 39  1  0  0  0
M  END
> <s_m_entry_id>
52790

> <s_m_entry_name>
dock_pv.9

> <s_m_Source_Path>
/home/csk/Desktop/cluster/DUD-E-result/hdac8

> <s_m_Source_File>
dock_pv.maegz

> <i_m_Source_File_Index>
9

> <chembl_id>
CHEMBL2407730

> <chembl_pref_name>
None

> <i_lp_mmshare_version>
53161

> <i_f3d_flags>
0

> <r_lp_tautomer_probability>
0.999999987636

> <s_lp_Force_Field>
OPLS_2005

> <r_lp_Energy>
18.644182

> <b_lp_Chiralities_Consistent>
1

> <s_lp_Variant>
CHEMBL3192_lig530-1

> <s_i_glide_gridfile>
glide-grid_3f07

> <i_i_glide_lignum>
551

> <i_i_glide_rotatable_bonds>
7

> <r_i_docking_score>
-8.58414648059261

> <r_i_glide_ligand_efficiency>
-0.357672770024692

> <r_i_glide_ligand_efficiency_sa>
-1.03170679666461

> <r_i_glide_ligand_efficiency_ln>
-2.05458015362089

> <r_i_glide_gscore>
-8.58414648059261

> <r_i_glide_lipo>
-1.59592657261092

> <r_i_glide_hbond>
-0.608

> <r_i_glide_metal>
-2.3

> <r_i_glide_rewards>
-1.48796392850566

> <r_i_glide_evdw>
-25.4033126831055

> <r_i_glide_ecoul>
-14.3343439102173

> <r_i_glide_erotb>
1.08576494457792

> <r_i_glide_esite>
-0.257703703366087

> <r_i_glide_emodel>
-61.1489510004745

> <r_i_glide_energy>
-39.7376565933228

> <r_i_glide_einternal>
5.41541624069214

> <i_i_glide_confnum>
22

> <i_i_glide_posenum>
234

> <r_i_glide_eff_state_penalty>
0

> <s_user_duplicate_titles>
CHEMBL3192_lig530

> <s_m_subgroup_title>
dock_pv

> <s_m_subgroupid>
dock_pv

> <b_m_subgroup_collapsed>
1

$$$$
CHEMBL3192_lig243
                    3D
 Schrodinger Suite 2021-1.
 49 52  0  0  1  0            999 V2000
  -26.1241   32.5300  -42.5808 N   0  0  0  0  0  0
  -25.4703   32.1289  -46.6669 C   0  0  0  0  0  0
  -25.3626   33.4245  -46.1776 C   0  0  0  0  0  0
  -25.5442   33.7223  -44.8264 C   0  0  0  0  0  0
  -25.7582   31.0684  -45.8150 C   0  0  0  0  0  0
  -26.2130   30.4378  -43.4614 N   0  0  0  0  0  0
  -25.9474   31.3317  -44.4525 C   0  0  0  0  0  0
  -25.8543   32.6581  -43.9532 C   0  0  0  0  0  0
  -26.2580   31.1530  -42.3673 C   0  0  0  0  0  0
  -26.4290   30.4843  -41.0424 C   0  0  0  0  0  0
  -25.4935   30.6908  -40.0252 C   0  0  0  0  0  0
  -25.6756   30.0976  -38.7810 C   0  0  0  0  0  0
  -26.7737   29.2691  -38.5535 C   0  0  0  0  0  0
  -27.7031   29.0109  -39.5651 C   0  0  0  0  0  0
  -27.5239   29.6432  -40.8028 C   0  0  0  0  0  0
  -28.8322   28.0702  -39.3716 C   0  0  0  0  0  0
  -28.9754   27.1825  -38.3577 C   0  0  0  0  0  0
  -30.0933   26.2701  -38.2434 C   0  0  0  0  0  0
  -30.2130   25.6690  -37.0479 N   0  0  0  0  0  0
  -30.8709   26.0690  -39.1810 O   0  0  0  0  0  0
  -31.2351   24.7198  -36.8785 O   0  0  0  0  0  0
  -26.1666   33.5836  -41.5163 C   0  0  1  0  0  0
  -26.1880   35.0117  -42.1145 C   0  0  0  0  0  0
  -26.5068   36.0830  -41.0772 C   0  0  0  0  0  0
  -27.8130   35.7636  -40.3395 C   0  0  0  0  0  0
  -27.7199   34.4690  -39.6769 N   0  0  1  0  0  0
  -27.4130   33.3669  -40.5933 C   0  0  0  0  0  0
  -25.3201   31.9453  -47.7212 H   0  0  0  0  0  0
  -25.1284   34.2240  -46.8663 H   0  0  0  0  0  0
  -25.4344   34.7475  -44.5221 H   0  0  0  0  0  0
  -25.8229   30.0690  -46.2004 H   0  0  0  0  0  0
  -24.6313   31.3216  -40.1877 H   0  0  0  0  0  0
  -24.9579   30.2775  -37.9936 H   0  0  0  0  0  0
  -26.8924   28.8212  -37.5810 H   0  0  0  0  0  0
  -28.2357   29.4769  -41.5978 H   0  0  0  0  0  0
  -29.5984   28.1301  -40.1295 H   0  0  0  0  0  0
  -28.2324   27.1218  -37.5810 H   0  0  0  0  0  0
  -29.6186   25.7720  -36.2358 H   0  0  0  0  0  0
  -30.7761   23.8745  -36.9399 H   0  0  0  0  0  0
  -25.2487   33.4411  -40.9438 H   0  0  0  0  0  0
  -25.1922   35.2485  -42.4904 H   0  0  0  0  0  0
  -26.8891   35.0834  -42.9468 H   0  0  0  0  0  0
  -25.6764   36.1779  -40.3810 H   0  0  0  0  0  0
  -26.5950   37.0545  -41.5649 H   0  0  0  0  0  0
  -28.0288   36.5267  -39.5919 H   0  0  0  0  0  0
  -28.6508   35.7452  -41.0383 H   0  0  0  0  0  0
  -26.9280   34.5251  -39.0343 H   0  0  0  0  0  0
  -28.2938   33.1067  -41.1810 H   0  0  0  0  0  0
  -27.2424   32.5397  -39.9119 H   0  0  0  0  0  0
  1  8  1  0  0  0
  1  9  1  0  0  0
  1 22  1  0  0  0
  2  3  2  0  0  0
  2  5  1  0  0  0
  2 28  1  0  0  0
  3  4  1  0  0  0
  3 29  1  0  0  0
  4  8  2  0  0  0
  4 30  1  0  0  0
  5  7  2  0  0  0
  5 31  1  0  0  0
  6  7  1  0  0  0
  6  9  2  0  0  0
  7  8  1  0  0  0
  9 10  1  0  0  0
 10 15  1  0  0  0
 10 11  2  0  0  0
 11 12  1  0  0  0
 11 32  1  0  0  0
 12 13  2  0  0  0
 12 33  1  0  0  0
 13 14  1  0  0  0
 13 34  1  0  0  0
 14 15  2  0  0  0
 14 16  1  0  0  0
 15 35  1  0  0  0
 16 17  2  0  0  0
 16 36  1  0  0  0
 17 18  1  0  0  0
 17 37  1  0  0  0
 18 19  1  0  0  0
 18 20  2  0  0  0
 19 21  1  0  0  0
 19 38  1  0  0  0
 21 39  1  0  0  0
 22 23  1  0  0  0
 22 27  1  0  0  0
 22 40  1  0  0  0
 23 24  1  0  0  0
 23 41  1  0  0  0
 23 42  1  0  0  0
 24 25  1  0  0  0
 24 43  1  0  0  0
 24 44  1  0  0  0
 25 26  1  0  0  0
 25 45  1  0  0  0
 25 46  1  0  0  0
 26 27  1  0  0  0
 26 47  1  0  0  0
 27 48  1  0  0  0
 27 49  1  0  0  0
M  END
> <s_m_entry_id>
52791

> <s_m_entry_name>
dock_pv.10

> <s_m_Source_Path>
/home/csk/Desktop/cluster/DUD-E-result/hdac8

> <s_m_Source_File>
dock_pv.maegz

> <i_m_Source_File_Index>
10

> <chembl_id>
CHEMBL1094794

> <chembl_pref_name>
None

> <i_lp_mmshare_version>
53161

> <i_f3d_flags>
0

> <r_lp_tautomer_probability>
1

> <s_lp_Force_Field>
OPLS_2005

> <r_lp_Energy>
38.087495

> <b_lp_Chiralities_Consistent>
1

> <s_lp_Variant>
CHEMBL3192_lig243-2

> <s_i_glide_gridfile>
glide-grid_3f07

> <i_i_glide_lignum>
254

> <i_i_glide_rotatable_bonds>
6

> <r_i_docking_score>
-8.56839170758506

> <r_i_glide_ligand_efficiency>
-0.317347841021669

> <r_i_glide_ligand_efficiency_sa>
-0.95204352201908

> <r_i_glide_ligand_efficiency_ln>
-1.99458032854836

> <r_i_glide_gscore>
-8.56839170758506

> <r_i_glide_lipo>
-1.30444163240816

> <r_i_glide_hbond>
-0.368789976384184

> <r_i_glide_metal>
-2.3

> <r_i_glide_rewards>
-1.16297131585226

> <r_i_glide_evdw>
-34.3322715759277

> <r_i_glide_ecoul>
-15.639009475708

> <r_i_glide_erotb>
0.730931500217038

> <r_i_glide_esite>
-0.100655283004902

> <r_i_glide_emodel>
-78.1793342768734

> <r_i_glide_energy>
-49.9712810516357

> <r_i_glide_einternal>
10.1632680892944

> <i_i_glide_confnum>
140

> <i_i_glide_posenum>
20

> <r_i_glide_eff_state_penalty>
0

> <s_user_duplicate_titles>
CHEMBL3192_lig243,CHEMBL3192_lig245,625500

> <s_m_subgroup_title>
dock_pv

> <s_m_subgroupid>
dock_pv

> <b_m_subgroup_collapsed>
1

$$$$
CHEMBL3192_lig835
                    3D
 Schrodinger Suite 2021-1.
 40 42  0  0  1  0            999 V2000
  -26.2154   34.0792  -39.9833 O   0  0  0  0  0  0
  -25.1577   34.1624  -40.9287 C   0  0  0  0  0  0
  -24.2460   32.9083  -40.9583 C   0  0  0  0  0  0
  -24.9868   31.6815  -41.2720 N   0  0  0  0  0  0
  -25.2719   31.1206  -42.5149 C   0  0  0  0  0  0
  -26.2067   30.2004  -42.4549 N   0  0  0  0  0  0
  -26.5081   30.0914  -41.1308 C   0  0  0  0  0  0
  -27.4486   29.2664  -40.5120 C   0  0  0  0  0  0
  -27.5677   29.2869  -39.1229 C   0  0  0  0  0  0
  -28.5283   28.4149  -38.4247 C   0  0  0  0  0  0
  -28.8345   27.1507  -38.7862 C   0  0  0  0  0  0
  -29.8278   26.3448  -38.1224 C   0  0  0  0  0  0
  -30.6130   25.6555  -38.7784 O   0  0  0  0  0  0
  -29.8174   26.4204  -36.7820 N   0  0  0  0  0  0
  -30.7774   25.6915  -36.0657 O   0  0  0  0  0  0
  -26.7638   30.1486  -38.3810 C   0  0  0  0  0  0
  -25.8390   31.0144  -38.9612 C   0  0  0  0  0  0
  -25.7316   30.9718  -40.3523 C   0  0  0  0  0  0
  -24.6029   31.4425  -43.8128 C   0  0  0  0  0  0
  -25.3547   31.5217  -44.9937 C   0  0  0  0  0  0
  -24.6931   31.7235  -46.2062 C   0  0  0  0  0  0
  -23.3440   31.8319  -46.2998 N   0  0  0  0  0  0
  -22.6226   31.7448  -45.1538 C   0  0  0  0  0  0
  -23.2083   31.5517  -43.9013 C   0  0  0  0  0  0
  -25.8295   34.0693  -39.0793 H   0  0  0  0  0  0
  -24.5727   35.0670  -40.7582 H   0  0  0  0  0  0
  -25.6504   34.2665  -41.8966 H   0  0  0  0  0  0
  -23.6722   32.7990  -40.0361 H   0  0  0  0  0  0
  -23.4918   33.0637  -41.7259 H   0  0  0  0  0  0
  -28.0736   28.6304  -41.1047 H   0  0  0  0  0  0
  -29.0367   28.8580  -37.5811 H   0  0  0  0  0  0
  -28.3365   26.6752  -39.6148 H   0  0  0  0  0  0
  -29.1945   26.9736  -36.1937 H   0  0  0  0  0  0
  -31.3582   26.3663  -35.7028 H   0  0  0  0  0  0
  -26.8841   30.1751  -37.3111 H   0  0  0  0  0  0
  -25.2435   31.6857  -38.3616 H   0  0  0  0  0  0
  -26.4303   31.4182  -44.9716 H   0  0  0  0  0  0
  -25.2459   31.7911  -47.1320 H   0  0  0  0  0  0
  -21.5481   31.8100  -45.2565 H   0  0  0  0  0  0
  -22.5834   31.4493  -43.0263 H   0  0  0  0  0  0
  1  2  1  0  0  0
  1 25  1  0  0  0
  2  3  1  0  0  0
  2 26  1  0  0  0
  2 27  1  0  0  0
  3  4  1  0  0  0
  3 28  1  0  0  0
  3 29  1  0  0  0
  4  5  1  0  0  0
  4 18  1  0  0  0
  5  6  2  0  0  0
  5 19  1  0  0  0
  6  7  1  0  0  0
  7  8  2  0  0  0
  7 18  1  0  0  0
  8  9  1  0  0  0
  8 30  1  0  0  0
  9 10  1  0  0  0
  9 16  2  0  0  0
 10 11  2  0  0  0
 10 31  1  0  0  0
 11 12  1  0  0  0
 11 32  1  0  0  0
 12 13  2  0  0  0
 12 14  1  0  0  0
 14 15  1  0  0  0
 14 33  1  0  0  0
 15 34  1  0  0  0
 16 17  1  0  0  0
 16 35  1  0  0  0
 17 18  2  0  0  0
 17 36  1  0  0  0
 19 20  2  0  0  0
 19 24  1  0  0  0
 20 21  1  0  0  0
 20 37  1  0  0  0
 21 22  2  0  0  0
 21 38  1  0  0  0
 22 23  1  0  0  0
 23 24  2  0  0  0
 23 39  1  0  0  0
 24 40  1  0  0  0
M  END
> <s_m_entry_id>
52793

> <s_m_entry_name>
dock_pv.12

> <s_m_Source_Path>
/home/csk/Desktop/cluster/DUD-E-result/hdac8

> <s_m_Source_File>
dock_pv.maegz

> <i_m_Source_File_Index>
12

> <chembl_id>
CHEMBL3645373

> <chembl_pref_name>
None

> <i_lp_mmshare_version>
53161

> <i_f3d_flags>
0

> <r_lp_tautomer_probability>
1

> <s_lp_Force_Field>
OPLS_2005

> <r_lp_Energy>
21.637254

> <b_lp_Chiralities_Consistent>
1

> <s_lp_Variant>
CHEMBL3192_lig835-1

> <s_i_glide_gridfile>
glide-grid_3f07

> <i_i_glide_lignum>
891

> <i_i_glide_rotatable_bonds>
8

> <r_i_docking_score>
-8.52811824864385

> <r_i_glide_ligand_efficiency>
-0.35533826036016

> <r_i_glide_ligand_efficiency_sa>
-1.02497290555064

> <r_i_glide_ligand_efficiency_ln>
-2.04117002674751

> <r_i_glide_gscore>
-8.52811824864385

> <r_i_glide_lipo>
-1.03862047468039

> <r_i_glide_hbond>
-0.456

> <r_i_glide_metal>
-2.3

> <r_i_glide_rewards>
-1.41438825508462

> <r_i_glide_evdw>
-27.2150135040283

> <r_i_glide_ecoul>
-19.2682952880859

> <r_i_glide_erotb>
1.06811291666022

> <r_i_glide_esite>
-0.136227467124754

> <r_i_glide_emodel>
-72.7313499437531

> <r_i_glide_energy>
-46.4833087921143

> <r_i_glide_einternal>
5.56121444702148

> <i_i_glide_confnum>
52

> <i_i_glide_posenum>
24

> <r_i_glide_eff_state_penalty>
0

> <s_user_duplicate_titles>
CHEMBL3192_lig835

> <s_m_subgroup_title>
dock_pv

> <s_m_subgroupid>
dock_pv

> <b_m_subgroup_collapsed>
1

$$$$
CHEMBL3192_lig208
                    3D
 Schrodinger Suite 2021-1.
 50 53  0  0  1  0            999 V2000
  -27.0125   28.8396  -38.6707 C   0  0  0  0  0  0
  -28.2326   28.9012  -39.3436 C   0  0  0  0  0  0
  -28.4567   29.9628  -40.2160 C   0  0  0  0  0  0
  -26.0218   29.7800  -38.9094 C   0  0  0  0  0  0
  -26.2307   30.8238  -39.8046 C   0  0  0  0  0  0
  -27.4833   30.9428  -40.4385 C   0  0  0  0  0  0
  -25.3760   32.7245  -41.3244 C   0  0  2  0  0  0
  -25.1230   31.8387  -40.0704 C   0  0  0  0  0  0
  -26.7807   33.1841  -41.3025 N   0  0  2  0  0  0
  -27.7521   32.0923  -41.3996 C   0  0  0  0  0  0
  -24.9858   32.0211  -42.6681 C   0  0  0  0  0  0
  -24.2386   31.0408  -42.6613 O   0  0  0  0  0  0
  -25.5196   32.5410  -43.7963 N   0  0  0  0  0  0
  -25.3082   32.1845  -45.1441 C   0  0  0  0  0  0
  -24.1195   31.5807  -45.5800 C   0  0  0  0  0  0
  -23.8982   31.3153  -46.9249 C   0  0  0  0  0  0
  -24.8499   31.6547  -47.8786 C   0  0  0  0  0  0
  -24.7210   33.5971  -41.2895 H   0  0  0  0  0  0
  -29.2283   27.9589  -39.2107 O   0  0  0  0  0  0
  -29.2141   27.1173  -38.0556 C   0  0  0  0  0  0
  -30.3196   26.0738  -38.1654 C   0  0  0  0  0  0
  -31.0222   26.0690  -39.1810 O   0  0  0  0  0  0
  -30.4557   25.2405  -37.1213 N   0  0  0  0  0  0
  -31.4130   24.2206  -37.1979 O   0  0  0  0  0  0
  -26.3014   32.5567  -46.1113 C   0  0  0  0  0  0
  -26.0598   32.2795  -47.4956 C   0  0  0  0  0  0
  -27.0316   32.6413  -48.4624 C   0  0  0  0  0  0
  -28.2130   33.2671  -48.0783 C   0  0  0  0  0  0
  -28.4632   33.5347  -46.7396 C   0  0  0  0  0  0
  -27.5337   33.1889  -45.7632 C   0  0  0  0  0  0
  -26.7814   28.0484  -37.9810 H   0  0  0  0  0  0
  -29.4036   30.0220  -40.7310 H   0  0  0  0  0  0
  -25.0723   29.6891  -38.4009 H   0  0  0  0  0  0
  -25.0838   32.4690  -39.1869 H   0  0  0  0  0  0
  -24.1495   31.3470  -40.1134 H   0  0  0  0  0  0
  -26.9594   33.9400  -41.9473 H   0  0  0  0  0  0
  -27.8010   31.6892  -42.4102 H   0  0  0  0  0  0
  -28.7291   32.5194  -41.1806 H   0  0  0  0  0  0
  -26.1418   33.3200  -43.6663 H   0  0  0  0  0  0
  -23.3326   31.3307  -44.8850 H   0  0  0  0  0  0
  -22.9689   30.8568  -47.2304 H   0  0  0  0  0  0
  -24.6637   31.4508  -48.9231 H   0  0  0  0  0  0
  -29.4118   27.7335  -37.1810 H   0  0  0  0  0  0
  -28.2719   26.5831  -37.9810 H   0  0  0  0  0  0
  -29.8921   25.1967  -36.2825 H   0  0  0  0  0  0
  -30.8896   23.4299  -37.3835 H   0  0  0  0  0  0
  -26.8521   32.4294  -49.5067 H   0  0  0  0  0  0
  -28.9502   33.5332  -48.8221 H   0  0  0  0  0  0
  -29.3931   34.0076  -46.4574 H   0  0  0  0  0  0
  -27.7652   33.4012  -44.7310 H   0  0  0  0  0  0
  1  4  1  0  0  0
  1  2  2  0  0  0
  1 31  1  0  0  0
  2 19  1  0  0  0
  2  3  1  0  0  0
  3  6  2  0  0  0
  3 32  1  0  0  0
  4  5  2  0  0  0
  4 33  1  0  0  0
  5  8  1  0  0  0
  5  6  1  0  0  0
  6 10  1  0  0  0
  7 18  1  0  0  0
  7  8  1  0  0  0
  7  9  1  0  0  0
  7 11  1  0  0  0
  8 34  1  0  0  0
  8 35  1  0  0  0
  9 10  1  0  0  0
  9 36  1  0  0  0
 10 37  1  0  0  0
 10 38  1  0  0  0
 11 12  2  0  0  0
 11 13  1  0  0  0
 13 14  1  0  0  0
 13 39  1  0  0  0
 14 15  2  0  0  0
 14 25  1  0  0  0
 15 16  1  0  0  0
 15 40  1  0  0  0
 16 17  2  0  0  0
 16 41  1  0  0  0
 17 26  1  0  0  0
 17 42  1  0  0  0
 19 20  1  0  0  0
 20 21  1  0  0  0
 20 43  1  0  0  0
 20 44  1  0  0  0
 21 22  2  0  0  0
 21 23  1  0  0  0
 23 24  1  0  0  0
 23 45  1  0  0  0
 24 46  1  0  0  0
 25 26  1  0  0  0
 25 30  2  0  0  0
 26 27  2  0  0  0
 27 28  1  0  0  0
 27 47  1  0  0  0
 28 29  2  0  0  0
 28 48  1  0  0  0
 29 30  1  0  0  0
 29 49  1  0  0  0
 30 50  1  0  0  0
M  END
> <s_m_entry_id>
52794

> <s_m_entry_name>
dock_pv.13

> <s_m_Source_Path>
/home/csk/Desktop/cluster/DUD-E-result/hdac8

> <s_m_Source_File>
dock_pv.maegz

> <i_m_Source_File_Index>
13

> <chembl_id>
CHEMBL597999

> <chembl_pref_name>
None

> <i_lp_mmshare_version>
53161

> <i_f3d_flags>
0

> <r_lp_tautomer_probability>
1

> <s_lp_Force_Field>
OPLS_2005

> <r_lp_Energy>
46.773709

> <b_lp_Chiralities_Consistent>
1

> <s_lp_Variant>
CHEMBL3192_lig208-1

> <s_i_glide_gridfile>
glide-grid_3f07

> <i_i_glide_lignum>
218

> <i_i_glide_rotatable_bonds>
8

> <r_i_docking_score>
-8.52570622612747

> <r_i_glide_ligand_efficiency>
-0.293989869866464

> <r_i_glide_ligand_efficiency_sa>
-0.903230022758117

> <r_i_glide_ligand_efficiency_ln>
-1.95217053252696

> <r_i_glide_gscore>
-8.52570622612747

> <r_i_glide_lipo>
-1.46816264004421

> <r_i_glide_hbond>
-0.41778739342238

> <r_i_glide_metal>
-2.3

> <r_i_glide_rewards>
-0.905103440481741

> <r_i_glide_evdw>
-35.8888969421387

> <r_i_glide_ecoul>
-16.2034320831299

> <r_i_glide_erotb>
0.891597009433697

> <r_i_glide_esite>
-0.101290102036416

> <r_i_glide_emodel>
-81.5521410558347

> <r_i_glide_energy>
-52.0923290252686

> <r_i_glide_einternal>
5.3800196647644

> <i_i_glide_confnum>
60

> <i_i_glide_posenum>
315

> <r_i_glide_eff_state_penalty>
0

> <s_user_duplicate_titles>
CHEMBL3192_lig208

> <s_m_subgroup_title>
dock_pv

> <s_m_subgroupid>
dock_pv

> <b_m_subgroup_collapsed>
1

$$$$
CHEMBL3192_lig547
                    3D
 Schrodinger Suite 2021-1.
 49 52  0  0  1  0            999 V2000
  -28.9896   28.4302  -39.4819 C   0  0  0  0  0  0
  -28.8588   27.5343  -38.4792 C   0  0  0  0  0  0
  -29.8130   26.4690  -38.2812 C   0  0  0  0  0  0
  -30.5601   26.0690  -39.1810 O   0  0  0  0  0  0
  -29.8404   25.9876  -37.0317 N   0  0  0  0  0  0
  -30.7254   24.9342  -36.7453 O   0  0  0  0  0  0
  -28.6559   30.6942  -40.3810 C   0  0  0  0  0  0
  -28.1004   29.5636  -39.7721 C   0  0  0  0  0  0
  -26.7362   29.5569  -39.4573 C   0  0  0  0  0  0
  -27.8733   31.8120  -40.6614 C   0  0  0  0  0  0
  -26.5147   31.7838  -40.3572 C   0  0  0  0  0  0
  -25.9411   30.6571  -39.7740 C   0  0  0  0  0  0
  -24.5724   30.5859  -39.5186 N   0  0  0  0  0  0
  -23.8069   31.5689  -39.8293 C   0  0  0  0  0  0
  -24.2963   32.7503  -40.3810 N   0  0  0  0  0  0
  -25.6374   32.9848  -40.6230 C   0  0  0  0  0  0
  -26.1039   34.0582  -41.0197 O   0  0  0  0  0  0
  -22.3199   31.4003  -39.5566 C   0  0  0  0  0  0
  -23.3887   33.8830  -40.7252 C   0  0  0  0  0  0
  -23.2075   34.1834  -42.2402 C   0  0  0  0  0  0
  -23.0592   32.9348  -43.0880 C   0  0  0  0  0  0
  -21.9046   32.2453  -43.4061 C   0  0  0  0  0  0
  -22.2130   31.0991  -44.0941 N   0  0  0  0  0  0
  -24.1331   32.1899  -43.6909 C   0  0  0  0  0  0
  -23.5798   30.9931  -44.2344 C   0  0  0  0  0  0
  -24.3829   29.9866  -44.7810 C   0  0  0  0  0  0
  -25.7601   30.2050  -44.7864 C   0  0  0  0  0  0
  -26.3177   31.3931  -44.3336 C   0  0  0  0  0  0
  -25.5182   32.3971  -43.8003 C   0  0  0  0  0  0
  -29.8130   28.3402  -40.1733 H   0  0  0  0  0  0
  -28.0444   27.6015  -37.7719 H   0  0  0  0  0  0
  -29.2780   26.2776  -36.2406 H   0  0  0  0  0  0
  -30.1667   24.1502  -36.7810 H   0  0  0  0  0  0
  -29.7062   30.7123  -40.6337 H   0  0  0  0  0  0
  -26.2763   28.6942  -39.0006 H   0  0  0  0  0  0
  -28.3179   32.6803  -41.1269 H   0  0  0  0  0  0
  -22.0922   30.4291  -39.1237 H   0  0  0  0  0  0
  -21.7393   31.4958  -40.4732 H   0  0  0  0  0  0
  -21.9646   32.1386  -38.8396 H   0  0  0  0  0  0
  -23.7439   34.7833  -40.2177 H   0  0  0  0  0  0
  -22.3976   33.7331  -40.3000 H   0  0  0  0  0  0
  -24.0517   34.7760  -42.5947 H   0  0  0  0  0  0
  -22.3501   34.8455  -42.3651 H   0  0  0  0  0  0
  -20.8725   32.4683  -43.1735 H   0  0  0  0  0  0
  -21.4977   30.4690  -44.4388 H   0  0  0  0  0  0
  -23.9773   29.0716  -45.1810 H   0  0  0  0  0  0
  -26.4159   29.4444  -45.1810 H   0  0  0  0  0  0
  -27.3876   31.5360  -44.3886 H   0  0  0  0  0  0
  -25.9673   33.3114  -43.4443 H   0  0  0  0  0  0
  1  2  2  0  0  0
  1  8  1  0  0  0
  1 30  1  0  0  0
  2  3  1  0  0  0
  2 31  1  0  0  0
  3  4  2  0  0  0
  3  5  1  0  0  0
  5  6  1  0  0  0
  5 32  1  0  0  0
  6 33  1  0  0  0
  7  8  2  0  0  0
  7 10  1  0  0  0
  7 34  1  0  0  0
  8  9  1  0  0  0
  9 12  2  0  0  0
  9 35  1  0  0  0
 10 11  2  0  0  0
 10 36  1  0  0  0
 11 12  1  0  0  0
 11 16  1  0  0  0
 12 13  1  0  0  0
 13 14  2  0  0  0
 14 15  1  0  0  0
 14 18  1  0  0  0
 15 16  1  0  0  0
 15 19  1  0  0  0
 16 17  2  0  0  0
 18 37  1  0  0  0
 18 38  1  0  0  0
 18 39  1  0  0  0
 19 20  1  0  0  0
 19 40  1  0  0  0
 19 41  1  0  0  0
 20 21  1  0  0  0
 20 42  1  0  0  0
 20 43  1  0  0  0
 21 22  2  0  0  0
 21 24  1  0  0  0
 22 23  1  0  0  0
 22 44  1  0  0  0
 23 25  1  0  0  0
 23 45  1  0  0  0
 24 25  2  0  0  0
 24 29  1  0  0  0
 25 26  1  0  0  0
 26 27  2  0  0  0
 26 46  1  0  0  0
 27 28  1  0  0  0
 27 47  1  0  0  0
 28 29  2  0  0  0
 28 48  1  0  0  0
 29 49  1  0  0  0
M  END
> <s_m_entry_id>
52795

> <s_m_entry_name>
dock_pv.14

> <s_m_Source_Path>
/home/csk/Desktop/cluster/DUD-E-result/hdac8

> <s_m_Source_File>
dock_pv.maegz

> <i_m_Source_File_Index>
14

> <chembl_id>
CHEMBL2425959

> <chembl_pref_name>
None

> <i_lp_mmshare_version>
53161

> <i_f3d_flags>
0

> <r_lp_tautomer_probability>
1

> <s_lp_Force_Field>
OPLS_2005

> <r_lp_Energy>
38.817103

> <b_lp_Chiralities_Consistent>
1

> <s_lp_Variant>
CHEMBL3192_lig547-1

> <s_i_glide_gridfile>
glide-grid_3f07

> <i_i_glide_lignum>
568

> <i_i_glide_rotatable_bonds>
7

> <r_i_docking_score>
-8.51468891916926

> <r_i_glide_ligand_efficiency>
-0.293609962729974

> <r_i_glide_ligand_efficiency_sa>
-0.902062827671791

> <r_i_glide_ligand_efficiency_ln>
-1.94964784860833

> <r_i_glide_gscore>
-8.51468891916926

> <r_i_glide_lipo>
-1.33341202504183

> <r_i_glide_hbond>
-0.676502404995343

> <r_i_glide_metal>
-2.3

> <r_i_glide_rewards>
-1.05535388804531

> <r_i_glide_evdw>
-34.6681327819824

> <r_i_glide_ecoul>
-12.926233291626

> <r_i_glide_erotb>
0.774861204596034

> <r_i_glide_esite>
-0.251940172839797

> <r_i_glide_emodel>
-76.3189798047857

> <r_i_glide_energy>
-47.5943660736084

> <r_i_glide_einternal>
5.1680474281311

> <i_i_glide_confnum>
20

> <i_i_glide_posenum>
169

> <r_i_glide_eff_state_penalty>
0

> <s_user_duplicate_titles>
CHEMBL3192_lig547

> <s_m_subgroup_title>
dock_pv

> <s_m_subgroupid>
dock_pv

> <b_m_subgroup_collapsed>
1

$$$$
CHEMBL3192_lig434
                    3D
 Schrodinger Suite 2021-1.
 39 40  0  0  1  0            999 V2000
  -30.2130   25.3436  -37.2101 O   0  0  0  0  0  0
  -29.4130   26.4692  -37.4986 N   0  0  0  0  0  0
  -29.4223   26.9506  -38.7448 C   0  0  0  0  0  0
  -30.2130   26.5049  -39.5810 O   0  0  0  0  0  0
  -28.5832   28.1761  -39.0408 C   0  0  0  0  0  0
  -27.3676   28.3979  -38.3939 C   0  0  0  0  0  0
  -26.5898   29.5138  -38.7033 C   0  0  0  0  0  0
  -27.0243   30.4404  -39.6512 C   0  0  0  0  0  0
  -26.1795   31.6772  -39.9549 C   0  0  0  0  0  0
  -25.8392   31.9003  -41.4446 C   0  0  0  0  0  0
  -25.0405   30.7483  -42.0855 C   0  0  0  0  0  0
  -24.2802   31.2657  -43.7425 S   0  0  0  0  0  0
  -23.4386   32.4453  -43.5184 O   0  0  0  0  0  0
  -23.7178   30.0690  -44.3810 O   0  0  0  0  0  0
  -25.6710   31.7917  -44.7446 C   0  0  0  0  0  0
  -26.0866   33.1256  -44.7201 C   0  0  0  0  0  0
  -27.1499   33.5335  -45.5225 C   0  0  0  0  0  0
  -27.7848   32.6103  -46.3517 C   0  0  0  0  0  0
  -27.3703   31.2802  -46.3810 C   0  0  0  0  0  0
  -26.3152   30.8690  -45.5692 C   0  0  0  0  0  0
  -28.2473   30.2399  -40.2891 C   0  0  0  0  0  0
  -29.0130   29.1185  -39.9836 C   0  0  0  0  0  0
  -29.5851   24.6117  -37.1810 H   0  0  0  0  0  0
  -28.8801   26.8078  -36.7018 H   0  0  0  0  0  0
  -27.0130   27.6923  -37.6582 H   0  0  0  0  0  0
  -25.6431   29.6549  -38.2026 H   0  0  0  0  0  0
  -26.7141   32.5509  -39.5810 H   0  0  0  0  0  0
  -25.2517   31.6443  -39.3799 H   0  0  0  0  0  0
  -26.7512   32.0796  -42.0149 H   0  0  0  0  0  0
  -25.2589   32.8219  -41.5185 H   0  0  0  0  0  0
  -24.2130   30.4418  -41.4464 H   0  0  0  0  0  0
  -25.6718   29.8810  -42.2746 H   0  0  0  0  0  0
  -25.5838   33.8446  -44.0886 H   0  0  0  0  0  0
  -27.4745   34.5638  -45.5099 H   0  0  0  0  0  0
  -28.6054   32.9282  -46.9793 H   0  0  0  0  0  0
  -27.8700   30.5724  -47.0269 H   0  0  0  0  0  0
  -25.9909   29.8390  -45.5810 H   0  0  0  0  0  0
  -28.6063   30.9455  -41.0233 H   0  0  0  0  0  0
  -29.9511   28.9911  -40.5026 H   0  0  0  0  0  0
  1  2  1  0  0  0
  1 23  1  0  0  0
  2  3  1  0  0  0
  2 24  1  0  0  0
  3  4  2  0  0  0
  3  5  1  0  0  0
  5  6  2  0  0  0
  5 22  1  0  0  0
  6  7  1  0  0  0
  6 25  1  0  0  0
  7  8  2  0  0  0
  7 26  1  0  0  0
  8  9  1  0  0  0
  8 21  1  0  0  0
  9 10  1  0  0  0
  9 27  1  0  0  0
  9 28  1  0  0  0
 10 11  1  0  0  0
 10 29  1  0  0  0
 10 30  1  0  0  0
 11 12  1  0  0  0
 11 31  1  0  0  0
 11 32  1  0  0  0
 12 13  2  0  0  0
 12 14  2  0  0  0
 12 15  1  0  0  0
 15 16  2  0  0  0
 15 20  1  0  0  0
 16 17  1  0  0  0
 16 33  1  0  0  0
 17 18  2  0  0  0
 17 34  1  0  0  0
 18 19  1  0  0  0
 18 35  1  0  0  0
 19 20  2  0  0  0
 19 36  1  0  0  0
 20 37  1  0  0  0
 21 22  2  0  0  0
 21 38  1  0  0  0
 22 39  1  0  0  0
M  END
> <s_m_entry_id>
52796

> <s_m_entry_name>
dock_pv.15

> <s_m_Source_Path>
/home/csk/Desktop/cluster/DUD-E-result/hdac8

> <s_m_Source_File>
dock_pv.maegz

> <i_m_Source_File_Index>
15

> <chembl_id>
CHEMBL557560

> <chembl_pref_name>
None

> <i_lp_mmshare_version>
53161

> <i_f3d_flags>
0

> <r_lp_tautomer_probability>
1

> <s_lp_Force_Field>
OPLS_2005

> <r_lp_Energy>
24.085338

> <b_lp_Chiralities_Consistent>
1

> <s_lp_Variant>
CHEMBL3192_lig434-1

> <s_i_glide_gridfile>
glide-grid_3f07

> <i_i_glide_lignum>
453

> <i_i_glide_rotatable_bonds>
8

> <r_i_docking_score>
-8.50743751948857

> <r_i_glide_ligand_efficiency>
-0.386701705431299

> <r_i_glide_ligand_efficiency_sa>
-1.08355338673358

> <r_i_glide_ligand_efficiency_ln>
-2.07952804608636

> <r_i_glide_gscore>
-8.50743751948857

> <r_i_glide_lipo>
-1.59437044622318

> <r_i_glide_hbond>
-0.605393791703845

> <r_i_glide_metal>
-2.3

> <r_i_glide_rewards>
-1.50601417596208

> <r_i_glide_evdw>
-22.4288063049316

> <r_i_glide_ecoul>
-15.1344900131226

> <r_i_glide_erotb>
1.09751467149425

> <r_i_glide_esite>
-0.207559959878753

> <r_i_glide_emodel>
-61.0601551388738

> <r_i_glide_energy>
-37.5632963180542

> <r_i_glide_einternal>
4.47939014434814

> <i_i_glide_confnum>
24

> <i_i_glide_posenum>
56

> <r_i_glide_eff_state_penalty>
0

> <s_user_duplicate_titles>
CHEMBL3192_lig434

> <s_m_subgroup_title>
dock_pv

> <s_m_subgroupid>
dock_pv

> <b_m_subgroup_collapsed>
1

$$$$
CHEMBL3192_lig703
                    3D
 Schrodinger Suite 2021-1.
 37 39  0  0  1  0            999 V2000
  -26.2483   31.7027  -42.5103 N   0  0  0  0  0  0
  -26.4827   31.8091  -43.8418 C   0  0  0  0  0  0
  -27.0130   32.9757  -44.4184 C   0  0  0  0  0  0
  -27.2917   34.0677  -43.6595 N   0  0  0  0  0  0
  -27.0616   33.9653  -42.3226 C   0  0  0  0  0  0
  -26.5653   32.7874  -41.7457 C   0  0  0  0  0  0
  -27.3065   33.0383  -45.7932 N   0  0  0  0  0  0
  -27.0911   32.0210  -46.5447 C   0  0  0  0  0  0
  -26.5462   30.8715  -46.0287 N   0  0  0  0  0  0
  -26.2003   30.6245  -44.7360 C   0  0  0  0  0  0
  -27.4130   32.0690  -47.9134 N   0  0  0  0  0  0
  -25.7264   29.5466  -44.3810 O   0  0  0  0  0  0
  -26.3559   32.7168  -40.2351 C   0  0  0  0  0  0
  -26.0265   31.3974  -39.6900 N   0  0  0  0  0  0
  -26.9603   30.3561  -39.5529 C   0  0  0  0  0  0
  -28.2135   30.3635  -40.1651 C   0  0  0  0  0  0
  -29.0605   29.2689  -40.0260 C   0  0  0  0  0  0
  -28.6964   28.1464  -39.2628 C   0  0  0  0  0  0
  -27.4466   28.1638  -38.6329 C   0  0  0  0  0  0
  -26.5939   29.2586  -38.7810 C   0  0  0  0  0  0
  -29.6340   26.9485  -39.1810 C   0  0  0  0  0  0
  -30.6130   26.8690  -39.9455 O   0  0  0  0  0  0
  -29.4130   26.0232  -38.2469 N   0  0  0  0  0  0
  -30.2164   24.8690  -38.2592 O   0  0  0  0  0  0
  -27.2848   34.8379  -41.7256 H   0  0  0  0  0  0
  -26.3616   30.1101  -46.6589 H   0  0  0  0  0  0
  -27.9489   32.8589  -48.2403 H   0  0  0  0  0  0
  -27.6887   31.2174  -48.3810 H   0  0  0  0  0  0
  -27.2471   33.0910  -39.7304 H   0  0  0  0  0  0
  -25.5453   33.4015  -39.9810 H   0  0  0  0  0  0
  -25.2282   31.3789  -39.0693 H   0  0  0  0  0  0
  -28.5303   31.1948  -40.7745 H   0  0  0  0  0  0
  -30.0104   29.3020  -40.5401 H   0  0  0  0  0  0
  -27.1113   27.3298  -38.0342 H   0  0  0  0  0  0
  -25.6231   29.2371  -38.3082 H   0  0  0  0  0  0
  -28.6827   26.0011  -37.5489 H   0  0  0  0  0  0
  -29.5842   24.1320  -38.2992 H   0  0  0  0  0  0
  1  2  1  0  0  0
  1  6  2  0  0  0
  2 10  1  0  0  0
  2  3  2  0  0  0
  3  4  1  0  0  0
  3  7  1  0  0  0
  4  5  2  0  0  0
  5  6  1  0  0  0
  5 25  1  0  0  0
  6 13  1  0  0  0
  7  8  2  0  0  0
  8  9  1  0  0  0
  8 11  1  0  0  0
  9 10  1  0  0  0
  9 26  1  0  0  0
 10 12  2  0  0  0
 11 27  1  0  0  0
 11 28  1  0  0  0
 13 14  1  0  0  0
 13 29  1  0  0  0
 13 30  1  0  0  0
 14 15  1  0  0  0
 14 31  1  0  0  0
 15 16  1  0  0  0
 15 20  2  0  0  0
 16 17  2  0  0  0
 16 32  1  0  0  0
 17 18  1  0  0  0
 17 33  1  0  0  0
 18 19  2  0  0  0
 18 21  1  0  0  0
 19 20  1  0  0  0
 19 34  1  0  0  0
 20 35  1  0  0  0
 21 22  2  0  0  0
 21 23  1  0  0  0
 23 24  1  0  0  0
 23 36  1  0  0  0
 24 37  1  0  0  0
M  END
> <s_m_entry_id>
52797

> <s_m_entry_name>
dock_pv.16

> <s_m_Source_Path>
/home/csk/Desktop/cluster/DUD-E-result/hdac8

> <s_m_Source_File>
dock_pv.maegz

> <i_m_Source_File_Index>
16

> <chembl_id>
CHEMBL3415959

> <chembl_pref_name>
None

> <i_lp_mmshare_version>
53161

> <i_f3d_flags>
0

> <r_lp_tautomer_probability>
1

> <s_lp_Force_Field>
OPLS_2005

> <r_lp_Energy>
36.434116

> <b_lp_Chiralities_Consistent>
1

> <s_lp_Variant>
CHEMBL3192_lig703-1

> <s_i_glide_gridfile>
glide-grid_3f07

> <i_i_glide_lignum>
747

> <i_i_glide_rotatable_bonds>
6

> <r_i_docking_score>
-8.49940333738819

> <r_i_glide_ligand_efficiency>
-0.354141805724508

> <r_i_glide_ligand_efficiency_sa>
-1.02152173318597

> <r_i_glide_ligand_efficiency_ln>
-2.03429723084261

> <r_i_glide_gscore>
-8.49940333738819

> <r_i_glide_lipo>
-1.19751164285064

> <r_i_glide_hbond>
-0.398762784411374

> <r_i_glide_metal>
-2.3

> <r_i_glide_rewards>
-1.40040792695359

> <r_i_glide_evdw>
-19.2653789520264

> <r_i_glide_ecoul>
-19.2169132232666

> <r_i_glide_erotb>
0.875914258308819

> <r_i_glide_esite>
-0.232829310390099

> <r_i_glide_emodel>
-60.1191792553915

> <r_i_glide_energy>
-38.482292175293

> <r_i_glide_einternal>
2.67601704597473

> <i_i_glide_confnum>
9

> <i_i_glide_posenum>
268

> <r_i_glide_eff_state_penalty>
0

> <s_user_duplicate_titles>
CHEMBL3192_lig703

> <s_m_subgroup_title>
dock_pv

> <s_m_subgroupid>
dock_pv

> <b_m_subgroup_collapsed>
1

$$$$
CHEMBL3192_lig688
                    3D
 Schrodinger Suite 2021-1.
 46 48  0  0  1  0            999 V2000
  -23.7462   30.7741  -49.7797 O   0  0  0  0  0  0
  -25.0955   31.2549  -49.4649 S   0  0  0  0  0  0
  -26.2650   30.4690  -49.8704 O   0  0  0  0  0  0
  -29.0130   28.9662  -39.9809 C   0  0  0  0  0  0
  -28.6468   28.0174  -39.0171 C   0  0  0  0  0  0
  -27.4130   28.1631  -38.3812 C   0  0  0  0  0  0
  -28.1533   29.9928  -40.3489 C   0  0  0  0  0  0
  -26.8962   30.0913  -39.7535 C   0  0  0  0  0  0
  -26.5562   29.2025  -38.7414 C   0  0  0  0  0  0
  -29.5820   26.8690  -38.7027 C   0  0  0  0  0  0
  -29.6524   26.4685  -37.4271 N   0  0  0  0  0  0
  -30.3576   26.4691  -39.5761 O   0  0  0  0  0  0
  -30.4934   25.3847  -37.1145 O   0  0  0  0  0  0
  -25.9248   31.0257  -40.1485 N   0  0  0  0  0  0
  -26.0500   31.9132  -41.3091 C   0  0  1  0  0  0
  -24.8976   32.8867  -41.3885 C   0  0  0  0  0  0
  -24.8101   33.1906  -42.8684 C   0  0  0  0  0  0
  -25.3361   31.9881  -43.5267 N   0  0  0  0  0  0
  -25.9821   31.1598  -42.6582 C   0  0  0  0  0  0
  -26.5030   30.0693  -42.9096 O   0  0  0  0  0  0
  -25.2952   31.7976  -44.9243 C   0  0  0  0  0  0
  -24.0975   32.0273  -45.6089 C   0  0  0  0  0  0
  -24.0372   31.8575  -46.9899 C   0  0  0  0  0  0
  -25.1820   31.4779  -47.6933 C   0  0  0  0  0  0
  -26.3878   31.2689  -47.0219 C   0  0  0  0  0  0
  -26.4423   31.4204  -45.6399 C   0  0  0  0  0  0
  -25.2849   32.9972  -50.1362 C   0  0  0  0  0  0
  -29.9651   28.9045  -40.4865 H   0  0  0  0  0  0
  -27.0905   27.4583  -37.6286 H   0  0  0  0  0  0
  -28.4594   30.6739  -41.1272 H   0  0  0  0  0  0
  -25.5867   29.2690  -38.2712 H   0  0  0  0  0  0
  -29.0933   26.7944  -36.6439 H   0  0  0  0  0  0
  -29.8877   24.6443  -36.9964 H   0  0  0  0  0  0
  -25.0996   31.1280  -39.5729 H   0  0  0  0  0  0
  -26.9949   32.4594  -41.2836 H   0  0  0  0  0  0
  -25.0513   33.7875  -40.7909 H   0  0  0  0  0  0
  -23.9638   32.4330  -41.0472 H   0  0  0  0  0  0
  -23.7829   33.4056  -43.1675 H   0  0  0  0  0  0
  -25.4308   34.0484  -43.1334 H   0  0  0  0  0  0
  -23.2037   32.3174  -45.0759 H   0  0  0  0  0  0
  -23.1021   32.0191  -47.5082 H   0  0  0  0  0  0
  -27.2781   30.9786  -47.5636 H   0  0  0  0  0  0
  -27.3825   31.2565  -45.1326 H   0  0  0  0  0  0
  -25.2573   32.9519  -51.2246 H   0  0  0  0  0  0
  -26.2404   33.3981  -49.8005 H   0  0  0  0  0  0
  -24.4637   33.6087  -49.7631 H   0  0  0  0  0  0
  1  2  2  0  0  0
  2  3  2  0  0  0
  2 24  1  0  0  0
  2 27  1  0  0  0
  4  5  2  0  0  0
  4  7  1  0  0  0
  4 28  1  0  0  0
  5  6  1  0  0  0
  5 10  1  0  0  0
  6  9  2  0  0  0
  6 29  1  0  0  0
  7  8  2  0  0  0
  7 30  1  0  0  0
  8  9  1  0  0  0
  8 14  1  0  0  0
  9 31  1  0  0  0
 10 11  1  0  0  0
 10 12  2  0  0  0
 11 13  1  0  0  0
 11 32  1  0  0  0
 13 33  1  0  0  0
 14 15  1  0  0  0
 14 34  1  0  0  0
 15 16  1  0  0  0
 15 19  1  0  0  0
 15 35  1  0  0  0
 16 17  1  0  0  0
 16 36  1  0  0  0
 16 37  1  0  0  0
 17 18  1  0  0  0
 17 38  1  0  0  0
 17 39  1  0  0  0
 18 19  1  0  0  0
 18 21  1  0  0  0
 19 20  2  0  0  0
 21 22  2  0  0  0
 21 26  1  0  0  0
 22 23  1  0  0  0
 22 40  1  0  0  0
 23 24  2  0  0  0
 23 41  1  0  0  0
 24 25  1  0  0  0
 25 26  2  0  0  0
 25 42  1  0  0  0
 26 43  1  0  0  0
 27 44  1  0  0  0
 27 45  1  0  0  0
 27 46  1  0  0  0
M  END
> <s_m_entry_id>
52798

> <s_m_entry_name>
dock_pv.17

> <s_m_Source_Path>
/home/csk/Desktop/cluster/DUD-E-result/hdac8

> <s_m_Source_File>
dock_pv.maegz

> <i_m_Source_File_Index>
17

> <chembl_id>
CHEMBL3415620

> <chembl_pref_name>
None

> <i_lp_mmshare_version>
53161

> <i_f3d_flags>
0

> <r_lp_tautomer_probability>
1

> <s_lp_Force_Field>
OPLS_2005

> <r_lp_Energy>
47.789112

> <b_lp_Chiralities_Consistent>
1

> <s_lp_Variant>
CHEMBL3192_lig688-2

> <s_i_glide_gridfile>
glide-grid_3f07

> <i_i_glide_lignum>
727

> <i_i_glide_rotatable_bonds>
7

> <r_i_docking_score>
-8.49006098388872

> <r_i_glide_ligand_efficiency>
-0.31444670310699

> <r_i_glide_ligand_efficiency_sa>
-0.943340108284604

> <r_i_glide_ligand_efficiency_ln>
-1.97634622745476

> <r_i_glide_gscore>
-8.49006098388872

> <r_i_glide_lipo>
-1.17159950790449

> <r_i_glide_hbond>
-0.663681846386442

> <r_i_glide_metal>
-2.3

> <r_i_glide_rewards>
-0.94743219265331

> <r_i_glide_evdw>
-26.8569240570068

> <r_i_glide_ecoul>
-16.2449531555176

> <r_i_glide_erotb>
0.642721734803863

> <r_i_glide_esite>
-0.270479995570365

> <r_i_glide_emodel>
-68.9401341389581

> <r_i_glide_energy>
-43.1018772125244

> <r_i_glide_einternal>
4.37137794494629

> <i_i_glide_confnum>
13

> <i_i_glide_posenum>
313

> <r_i_glide_eff_state_penalty>
0

> <s_user_duplicate_titles>
CHEMBL3192_lig688

> <s_m_subgroup_title>
dock_pv

> <s_m_subgroupid>
dock_pv

> <b_m_subgroup_collapsed>
1

$$$$
CHEMBL3192_lig243
                    3D
 Schrodinger Suite 2021-1.
 49 52  0  0  1  0            999 V2000
  -26.6432   32.4478  -42.6497 N   0  0  0  0  0  0
  -25.2251   32.0346  -46.5402 C   0  0  0  0  0  0
  -25.7928   33.2699  -46.2453 C   0  0  0  0  0  0
  -26.3158   33.5666  -44.9844 C   0  0  0  0  0  0
  -25.1613   31.0298  -45.5802 C   0  0  0  0  0  0
  -25.7461   30.4449  -43.2533 N   0  0  0  0  0  0
  -25.6833   31.2963  -44.3081 C   0  0  0  0  0  0
  -26.2506   32.5639  -43.9953 C   0  0  0  0  0  0
  -26.3227   31.1324  -42.3057 C   0  0  0  0  0  0
  -26.5644   30.4835  -40.9961 C   0  0  0  0  0  0
  -25.6084   30.6484  -39.9950 C   0  0  0  0  0  0
  -25.7979   30.0546  -38.7571 C   0  0  0  0  0  0
  -26.9073   29.2395  -38.5365 C   0  0  0  0  0  0
  -27.8500   29.0089  -39.5427 C   0  0  0  0  0  0
  -27.6811   29.6690  -40.7692 C   0  0  0  0  0  0
  -28.9635   28.0470  -39.3588 C   0  0  0  0  0  0
  -29.0867   27.1326  -38.3632 C   0  0  0  0  0  0
  -30.1829   26.1900  -38.2742 C   0  0  0  0  0  0
  -30.2130   25.4665  -37.1426 N   0  0  0  0  0  0
  -31.0128   26.0690  -39.1810 O   0  0  0  0  0  0
  -31.1973   24.4713  -37.0135 O   0  0  0  0  0  0
  -27.4130   33.4001  -41.7817 C   0  0  2  0  0  0
  -27.7281   34.7391  -42.4884 C   0  0  0  0  0  0
  -28.4427   35.7219  -41.5576 C   0  0  0  0  0  0
  -27.6558   35.9249  -40.2557 C   0  0  0  0  0  0
  -27.4130   34.6535  -39.5810 N   0  0  1  0  0  0
  -26.7330   33.6496  -40.4072 C   0  0  0  0  0  0
  -24.8322   31.8548  -47.5307 H   0  0  0  0  0  0
  -25.8288   34.0237  -47.0193 H   0  0  0  0  0  0
  -26.7412   34.5423  -44.8329 H   0  0  0  0  0  0
  -24.7286   30.0689  -45.8115 H   0  0  0  0  0  0
  -24.7306   31.2563  -40.1652 H   0  0  0  0  0  0
  -25.0628   30.2038  -37.9810 H   0  0  0  0  0  0
  -27.0130   28.7591  -37.5810 H   0  0  0  0  0  0
  -28.3912   29.5220  -41.5702 H   0  0  0  0  0  0
  -29.7315   28.1088  -40.1150 H   0  0  0  0  0  0
  -28.3455   27.0657  -37.5825 H   0  0  0  0  0  0
  -29.5639   25.4925  -36.3677 H   0  0  0  0  0  0
  -30.7175   23.6508  -37.1813 H   0  0  0  0  0  0
  -28.3394   32.8689  -41.5810 H   0  0  0  0  0  0
  -26.8096   35.2034  -42.8478 H   0  0  0  0  0  0
  -28.3928   34.5643  -43.3356 H   0  0  0  0  0  0
  -28.5477   36.6839  -42.0611 H   0  0  0  0  0  0
  -29.4598   35.4026  -41.3393 H   0  0  0  0  0  0
  -26.6989   36.4101  -40.4573 H   0  0  0  0  0  0
  -28.2127   36.5747  -39.5810 H   0  0  0  0  0  0
  -26.8223   34.7994  -38.7608 H   0  0  0  0  0  0
  -26.8080   32.7645  -39.7859 H   0  0  0  0  0  0
  -25.6746   33.8942  -40.5153 H   0  0  0  0  0  0
  1  8  1  0  0  0
  1  9  1  0  0  0
  1 22  1  0  0  0
  2  3  2  0  0  0
  2  5  1  0  0  0
  2 28  1  0  0  0
  3  4  1  0  0  0
  3 29  1  0  0  0
  4  8  2  0  0  0
  4 30  1  0  0  0
  5  7  2  0  0  0
  5 31  1  0  0  0
  6  7  1  0  0  0
  6  9  2  0  0  0
  7  8  1  0  0  0
  9 10  1  0  0  0
 10 15  1  0  0  0
 10 11  2  0  0  0
 11 12  1  0  0  0
 11 32  1  0  0  0
 12 13  2  0  0  0
 12 33  1  0  0  0
 13 14  1  0  0  0
 13 34  1  0  0  0
 14 15  2  0  0  0
 14 16  1  0  0  0
 15 35  1  0  0  0
 16 17  2  0  0  0
 16 36  1  0  0  0
 17 18  1  0  0  0
 17 37  1  0  0  0
 18 19  1  0  0  0
 18 20  2  0  0  0
 19 21  1  0  0  0
 19 38  1  0  0  0
 21 39  1  0  0  0
 22 23  1  0  0  0
 22 27  1  0  0  0
 22 40  1  0  0  0
 23 24  1  0  0  0
 23 41  1  0  0  0
 23 42  1  0  0  0
 24 25  1  0  0  0
 24 43  1  0  0  0
 24 44  1  0  0  0
 25 26  1  0  0  0
 25 45  1  0  0  0
 25 46  1  0  0  0
 26 27  1  0  0  0
 26 47  1  0  0  0
 27 48  1  0  0  0
 27 49  1  0  0  0
M  END
> <s_m_entry_id>
52799

> <s_m_entry_name>
dock_pv.18

> <s_m_Source_Path>
/home/csk/Desktop/cluster/DUD-E-result/hdac8

> <s_m_Source_File>
dock_pv.maegz

> <i_m_Source_File_Index>
18

> <chembl_id>
CHEMBL1094794

> <chembl_pref_name>
None

> <i_lp_mmshare_version>
53161

> <i_f3d_flags>
0

> <r_lp_tautomer_probability>
1

> <s_lp_Force_Field>
OPLS_2005

> <r_lp_Energy>
41.102694

> <b_lp_Chiralities_Consistent>
1

> <s_lp_Variant>
CHEMBL3192_lig243-1

> <s_i_glide_gridfile>
glide-grid_3f07

> <i_i_glide_lignum>
253

> <i_i_glide_rotatable_bonds>
6

> <r_i_docking_score>
-8.45015512162904

> <r_i_glide_ligand_efficiency>
-0.312968708208483

> <r_i_glide_ligand_efficiency_sa>
-0.938906123593955

> <r_i_glide_ligand_efficiency_ln>
-1.96705680062026

> <r_i_glide_gscore>
-8.45015512162904

> <r_i_glide_lipo>
-1.32769169086569

> <r_i_glide_hbond>
-0.303839216702542

> <r_i_glide_metal>
-2.3

> <r_i_glide_rewards>
-1.14481328263722

> <r_i_glide_evdw>
-35.928596496582

> <r_i_glide_ecoul>
-14.7220840454102

> <r_i_glide_erotb>
0.730931500217038

> <r_i_glide_esite>
-0.1

> <r_i_glide_emodel>
-79.6222204058563

> <r_i_glide_energy>
-50.6506805419922

> <r_i_glide_einternal>
6.90189456939697

> <i_i_glide_confnum>
20

> <i_i_glide_posenum>
147

> <r_i_glide_eff_state_penalty>
0

> <s_user_duplicate_titles>
CHEMBL3192_lig243,CHEMBL3192_lig244,625498,625499

> <s_m_subgroup_title>
dock_pv

> <s_m_subgroupid>
dock_pv

> <b_m_subgroup_collapsed>
1

$$$$
CHEMBL3192_lig773
                    3D
 Schrodinger Suite 2021-1.
 26 26  0  0  1  0            999 V2000
  -29.3147   27.6218  -38.9762 C   0  0  0  0  0  0
  -29.5135   27.2186  -37.6988 N   0  0  0  0  0  0
  -30.6838   26.4690  -37.1796 C   0  0  1  0  0  0
  -30.8208   24.9927  -37.5833 C   0  0  0  0  0  0
  -30.7762   26.6882  -35.6624 C   0  0  0  0  0  0
  -30.2130   24.7454  -38.7809 O   0  0  0  0  0  0
  -31.4130   24.1641  -36.9233 O   0  0  0  0  0  0
  -30.1188   27.2690  -39.8493 O   0  0  0  0  0  0
  -27.1046   28.4690  -38.4485 C   0  0  0  0  0  0
  -28.2321   28.5991  -39.1811 C   0  0  0  0  0  0
  -28.3612   29.6974  -40.0547 N   0  0  0  0  0  0
  -27.3672   30.6740  -40.1921 C   0  0  0  0  0  0
  -26.1853   30.5013  -39.4014 C   0  0  0  0  0  0
  -26.0482   29.4562  -38.5719 C   0  0  0  0  0  0
  -29.5534   29.8794  -40.7809 O   0  0  0  0  0  0
  -27.4130   32.0186  -41.1810 S   0  0  0  0  0  0
  -28.8592   27.5210  -36.9818 H   0  0  0  0  0  0
  -31.6083   26.8690  -37.5810 H   0  0  0  0  0  0
  -31.4130   25.9566  -35.1810 H   0  0  0  0  0  0
  -29.8130   26.5988  -35.1810 H   0  0  0  0  0  0
  -31.1823   27.6690  -35.4272 H   0  0  0  0  0  0
  -29.9712   23.8012  -38.7241 H   0  0  0  0  0  0
  -27.0130   27.6399  -37.7711 H   0  0  0  0  0  0
  -25.3882   31.2311  -39.4893 H   0  0  0  0  0  0
  -25.1239   29.3516  -38.0231 H   0  0  0  0  0  0
  -29.2911   29.6695  -41.6811 H   0  0  0  0  0  0
  1  2  1  0  0  0
  1 10  1  0  0  0
  1  8  2  0  0  0
  2  3  1  0  0  0
  2 17  1  0  0  0
  3  4  1  0  0  0
  3  5  1  0  0  0
  3 18  1  0  0  0
  4  6  1  0  0  0
  4  7  2  0  0  0
  5 19  1  0  0  0
  5 20  1  0  0  0
  5 21  1  0  0  0
  6 22  1  0  0  0
  9 10  2  0  0  0
  9 14  1  0  0  0
  9 23  1  0  0  0
 10 11  1  0  0  0
 11 12  1  0  0  0
 11 15  1  0  0  0
 12 13  1  0  0  0
 12 16  2  0  0  0
 13 14  2  0  0  0
 13 24  1  0  0  0
 14 25  1  0  0  0
 15 26  1  0  0  0
M  END
> <s_m_entry_id>
52801

> <s_m_entry_name>
dock_pv.20

> <s_m_Source_Path>
/home/csk/Desktop/cluster/DUD-E-result/hdac8

> <s_m_Source_File>
dock_pv.maegz

> <i_m_Source_File_Index>
20

> <chembl_id>
CHEMBL3260857

> <chembl_pref_name>
None

> <i_lp_mmshare_version>
53161

> <i_f3d_flags>
0

> <r_lp_tautomer_probability>
1

> <s_lp_Force_Field>
OPLS_2005

> <r_lp_Energy>
29.355436

> <b_lp_Chiralities_Consistent>
1

> <s_lp_Variant>
CHEMBL3192_lig773-1

> <s_i_glide_gridfile>
glide-grid_3f07

> <i_i_glide_lignum>
824

> <i_i_glide_rotatable_bonds>
6

> <r_i_docking_score>
-8.44966379616537

> <r_i_glide_ligand_efficiency>
-0.528103987260336

> <r_i_glide_ligand_efficiency_sa>
-1.33073865893556

> <r_i_glide_ligand_efficiency_ln>
-2.23975217503932

> <r_i_glide_gscore>
-8.44966379616537

> <r_i_glide_lipo>
-1.04414148624138

> <r_i_glide_hbond>
-0.576

> <r_i_glide_metal>
-2.3

> <r_i_glide_rewards>
-2.01221289386737

> <r_i_glide_evdw>
-2.24215149879456

> <r_i_glide_ecoul>
-22.0487861633301

> <r_i_glide_erotb>
1.18198119375151

> <r_i_glide_esite>
-0.279865110368902

> <r_i_glide_emodel>
-40.2518218722542

> <r_i_glide_energy>
-24.2909376621246

> <r_i_glide_einternal>
5.56795597076416

> <i_i_glide_confnum>
31

> <i_i_glide_posenum>
75

> <r_i_glide_eff_state_penalty>
0

> <s_user_duplicate_titles>
CHEMBL3192_lig773

> <s_m_subgroup_title>
dock_pv

> <s_m_subgroupid>
dock_pv

> <b_m_subgroup_collapsed>
1

$$$$
CHEMBL3192_lig422
                    3D
 Schrodinger Suite 2021-1.
 32 33  0  0  1  0            999 V2000
  -26.8733   29.6834  -40.9339 C   0  0  0  0  0  0
  -25.7888   30.5679  -41.0821 C   0  0  0  0  0  0
  -25.2363   31.1084  -39.9108 C   0  0  0  0  0  0
  -25.6989   30.7280  -38.6550 C   0  0  0  0  0  0
  -26.7287   29.7996  -38.5414 C   0  0  0  0  0  0
  -27.3471   29.2822  -39.6775 C   0  0  0  0  0  0
  -28.4660   28.3206  -39.5846 C   0  0  0  0  0  0
  -28.6712   27.3899  -38.6207 C   0  0  0  0  0  0
  -29.8130   26.4974  -38.6362 C   0  0  0  0  0  0
  -29.9492   25.7349  -37.5420 N   0  0  0  0  0  0
  -30.6130   26.4690  -39.5810 O   0  0  0  0  0  0
  -30.9986   24.8009  -37.5059 O   0  0  0  0  0  0
  -25.2010   30.8690  -42.4332 C   0  0  0  0  0  0
  -25.9459   30.6943  -43.6112 C   0  0  0  0  0  0
  -25.3548   30.8410  -44.8642 C   0  0  0  0  0  0
  -24.0090   31.1778  -44.9585 C   0  0  0  0  0  0
  -23.2627   31.4105  -43.8092 C   0  0  0  0  0  0
  -23.8591   31.2690  -42.5590 C   0  0  0  0  0  0
  -23.4130   31.2690  -46.1870 O   0  0  0  0  0  0
  -27.3391   29.2690  -41.8106 H   0  0  0  0  0  0
  -24.4298   31.8257  -39.9492 H   0  0  0  0  0  0
  -25.2486   31.1517  -37.7700 H   0  0  0  0  0  0
  -27.0617   29.5003  -37.5636 H   0  0  0  0  0  0
  -29.1885   28.4239  -40.3810 H   0  0  0  0  0  0
  -27.9748   27.2793  -37.8015 H   0  0  0  0  0  0
  -29.3560   25.7065  -36.7239 H   0  0  0  0  0  0
  -30.5484   23.9482  -37.5810 H   0  0  0  0  0  0
  -26.9906   30.4278  -43.5751 H   0  0  0  0  0  0
  -25.9358   30.6785  -45.7601 H   0  0  0  0  0  0
  -22.2184   31.6794  -43.8758 H   0  0  0  0  0  0
  -23.2368   31.4129  -41.6888 H   0  0  0  0  0  0
  -22.4780   31.4819  -46.1288 H   0  0  0  0  0  0
  1  6  1  0  0  0
  1  2  2  0  0  0
  1 20  1  0  0  0
  2  3  1  0  0  0
  2 13  1  0  0  0
  3  4  2  0  0  0
  3 21  1  0  0  0
  4  5  1  0  0  0
  4 22  1  0  0  0
  5  6  2  0  0  0
  5 23  1  0  0  0
  6  7  1  0  0  0
  7  8  2  0  0  0
  7 24  1  0  0  0
  8  9  1  0  0  0
  8 25  1  0  0  0
  9 10  1  0  0  0
  9 11  2  0  0  0
 10 12  1  0  0  0
 10 26  1  0  0  0
 12 27  1  0  0  0
 13 14  2  0  0  0
 13 18  1  0  0  0
 14 15  1  0  0  0
 14 28  1  0  0  0
 15 16  2  0  0  0
 15 29  1  0  0  0
 16 17  1  0  0  0
 16 19  1  0  0  0
 17 18  2  0  0  0
 17 30  1  0  0  0
 18 31  1  0  0  0
 19 32  1  0  0  0
M  END
> <s_m_entry_id>
52802

> <s_m_entry_name>
dock_pv.21

> <s_m_Source_Path>
/home/csk/Desktop/cluster/DUD-E-result/hdac8

> <s_m_Source_File>
dock_pv.maegz

> <i_m_Source_File_Index>
21

> <chembl_id>
CHEMBL555906

> <chembl_pref_name>
None

> <i_lp_mmshare_version>
53161

> <i_f3d_flags>
0

> <r_lp_tautomer_probability>
0.999999999997365

> <s_lp_Force_Field>
OPLS_2005

> <r_lp_Energy>
21.330729

> <b_lp_Chiralities_Consistent>
1

> <s_lp_Variant>
CHEMBL3192_lig422-1

> <s_i_glide_gridfile>
glide-grid_3f07

> <i_i_glide_lignum>
441

> <i_i_glide_rotatable_bonds>
6

> <r_i_docking_score>
-8.432616151317

> <r_i_glide_ligand_efficiency>
-0.443821902700895

> <r_i_glide_ligand_efficiency_sa>
-1.18429509574362

> <r_i_glide_ligand_efficiency_ln>
-2.13784931034705

> <r_i_glide_gscore>
-8.432616151317

> <r_i_glide_lipo>
-1.40780080602224

> <r_i_glide_hbond>
-0.307824503188396

> <r_i_glide_metal>
-2.3

> <r_i_glide_rewards>
-1.86143300010399

> <r_i_glide_evdw>
-25.1986064910889

> <r_i_glide_ecoul>
-14.878212928772

> <r_i_glide_erotb>
1.08061700159589

> <r_i_glide_esite>
-0.14451257972802

> <r_i_glide_emodel>
-64.9456316488143

> <r_i_glide_energy>
-40.0768194198608

> <r_i_glide_einternal>
2.06628322601318

> <i_i_glide_confnum>
13

> <i_i_glide_posenum>
205

> <r_i_glide_eff_state_penalty>
0

> <s_user_duplicate_titles>
CHEMBL3192_lig422

> <s_m_subgroup_title>
dock_pv

> <s_m_subgroupid>
dock_pv

> <b_m_subgroup_collapsed>
1

$$$$
CHEMBL3192_lig224
                    3D
 Schrodinger Suite 2021-1.
 34 36  0  0  1  0            999 V2000
  -24.2704   31.2820  -46.8139 C   0  0  0  0  0  0
  -23.0357   31.6689  -46.2893 C   0  0  0  0  0  0
  -22.7980   31.7146  -44.9128 C   0  0  0  0  0  0
  -25.3289   30.9113  -45.9815 C   0  0  0  0  0  0
  -25.9784   30.6019  -43.5852 N   0  0  0  0  0  0
  -25.1187   30.9374  -44.5968 C   0  0  0  0  0  0
  -23.8628   31.3480  -44.0856 C   0  0  0  0  0  0
  -24.0253   31.2690  -42.7238 N   0  0  0  0  0  0
  -25.3007   30.8063  -42.4779 C   0  0  0  0  0  0
  -25.8108   30.4910  -41.1073 C   0  0  0  0  0  0
  -25.1577   30.9642  -39.9630 C   0  0  0  0  0  0
  -25.5990   30.5911  -38.6963 C   0  0  0  0  0  0
  -26.6874   29.7317  -38.5599 C   0  0  0  0  0  0
  -27.3673   29.2617  -39.6829 C   0  0  0  0  0  0
  -26.9335   29.6690  -40.9478 C   0  0  0  0  0  0
  -28.4922   28.3161  -39.5810 C   0  0  0  0  0  0
  -28.6782   27.3804  -38.6193 C   0  0  0  0  0  0
  -29.8130   26.4842  -38.6358 C   0  0  0  0  0  0
  -29.9461   25.7072  -37.5503 N   0  0  0  0  0  0
  -30.6130   26.4690  -39.5807 O   0  0  0  0  0  0
  -31.0026   24.7804  -37.5169 O   0  0  0  0  0  0
  -24.4070   31.2700  -47.8857 H   0  0  0  0  0  0
  -22.2397   31.9419  -46.9677 H   0  0  0  0  0  0
  -21.8376   32.0145  -44.5189 H   0  0  0  0  0  0
  -26.2813   30.6105  -46.3917 H   0  0  0  0  0  0
  -23.3580   31.4759  -41.9959 H   0  0  0  0  0  0
  -24.3005   31.6173  -40.0401 H   0  0  0  0  0  0
  -25.0857   30.9627  -37.8220 H   0  0  0  0  0  0
  -27.0130   29.4353  -37.5782 H   0  0  0  0  0  0
  -27.4442   29.2979  -41.8232 H   0  0  0  0  0  0
  -29.2238   28.4273  -40.3696 H   0  0  0  0  0  0
  -27.9724   27.2690  -37.8087 H   0  0  0  0  0  0
  -29.3458   25.6585  -36.7385 H   0  0  0  0  0  0
  -30.5570   23.9244  -37.5810 H   0  0  0  0  0  0
  1  2  2  0  0  0
  1  4  1  0  0  0
  1 22  1  0  0  0
  2  3  1  0  0  0
  2 23  1  0  0  0
  3  7  2  0  0  0
  3 24  1  0  0  0
  4  6  2  0  0  0
  4 25  1  0  0  0
  5  6  1  0  0  0
  5  9  2  0  0  0
  6  7  1  0  0  0
  7  8  1  0  0  0
  8  9  1  0  0  0
  8 26  1  0  0  0
  9 10  1  0  0  0
 10 11  2  0  0  0
 10 15  1  0  0  0
 11 12  1  0  0  0
 11 27  1  0  0  0
 12 13  2  0  0  0
 12 28  1  0  0  0
 13 14  1  0  0  0
 13 29  1  0  0  0
 14 15  2  0  0  0
 14 16  1  0  0  0
 15 30  1  0  0  0
 16 17  2  0  0  0
 16 31  1  0  0  0
 17 18  1  0  0  0
 17 32  1  0  0  0
 18 19  1  0  0  0
 18 20  2  0  0  0
 19 21  1  0  0  0
 19 33  1  0  0  0
 21 34  1  0  0  0
M  END
> <s_m_entry_id>
52803

> <s_m_entry_name>
dock_pv.22

> <s_m_Source_Path>
/home/csk/Desktop/cluster/DUD-E-result/hdac8

> <s_m_Source_File>
dock_pv.maegz

> <i_m_Source_File_Index>
22

> <chembl_id>
CHEMBL1098042

> <chembl_pref_name>
None

> <i_lp_mmshare_version>
53161

> <i_f3d_flags>
0

> <r_lp_tautomer_probability>
1

> <s_lp_Force_Field>
OPLS_2005

> <r_lp_Energy>
22.124591

> <b_lp_Chiralities_Consistent>
1

> <s_lp_Variant>
CHEMBL3192_lig224-1

> <s_i_glide_gridfile>
glide-grid_3f07

> <i_i_glide_lignum>
234

> <i_i_glide_rotatable_bonds>
5

> <r_i_docking_score>
-8.42629061171982

> <r_i_glide_ligand_efficiency>
-0.40125193389142

> <r_i_glide_ligand_efficiency_sa>
-1.10702366010926

> <r_i_glide_ligand_efficiency_ln>
-2.08338332682432

> <r_i_glide_gscore>
-8.42629061171982

> <r_i_glide_lipo>
-1.34975356785339

> <r_i_glide_hbond>
-0.307383910131167

> <r_i_glide_metal>
-2.3

> <r_i_glide_rewards>
-1.69390239536581

> <r_i_glide_evdw>
-27.3326053619385

> <r_i_glide_ecoul>
-14.5892534255981

> <r_i_glide_erotb>
0.925103519066077

> <r_i_glide_esite>
-0.145335975498889

> <r_i_glide_emodel>
-68.4913837529867

> <r_i_glide_energy>
-41.9218587875366

> <r_i_glide_einternal>
1.79394364356995

> <i_i_glide_confnum>
3

> <i_i_glide_posenum>
27

> <r_i_glide_eff_state_penalty>
0

> <s_user_duplicate_titles>
CHEMBL3192_lig224

> <s_m_subgroup_title>
dock_pv

> <s_m_subgroupid>
dock_pv

> <b_m_subgroup_collapsed>
1

$$$$
CHEMBL3192_lig800
                    3D
 Schrodinger Suite 2021-1.
 46 48  0  0  1  0            999 V2000
  -21.9626   32.4556  -39.5821 O   0  0  0  0  0  0
  -22.3260   31.1161  -39.3142 C   0  0  0  0  0  0
  -23.7360   30.7756  -39.8444 C   0  0  0  0  0  0
  -24.8412   31.6833  -39.2835 C   0  0  0  0  0  0
  -26.1827   31.3146  -39.7367 N   0  0  0  0  0  0
  -27.0211   32.0216  -40.5875 C   0  0  0  0  0  0
  -26.6736   33.3596  -41.2411 C   0  0  0  0  0  0
  -26.6563   33.3382  -42.7848 C   0  0  0  0  0  0
  -25.8092   32.2311  -43.4052 C   0  0  0  0  0  0
  -24.4747   32.4588  -43.7537 C   0  0  0  0  0  0
  -23.7416   31.4547  -44.3853 C   0  0  0  0  0  0
  -24.3475   30.2296  -44.6618 C   0  0  0  0  0  0
  -25.6630   29.9855  -44.2866 C   0  0  0  0  0  0
  -26.3894   30.9879  -43.6570 C   0  0  0  0  0  0
  -28.1741   31.4231  -40.7810 N   0  0  0  0  0  0
  -28.0920   30.2560  -40.0733 C   0  0  0  0  0  0
  -29.0131   29.2052  -39.9812 C   0  0  0  0  0  0
  -28.7199   28.0780  -39.1858 C   0  0  0  0  0  0
  -27.5249   28.0691  -38.4597 C   0  0  0  0  0  0
  -26.5932   29.1063  -38.5264 C   0  0  0  0  0  0
  -26.8777   30.1773  -39.3692 C   0  0  0  0  0  0
  -29.6838   26.8987  -39.1666 C   0  0  0  0  0  0
  -30.6130   26.8690  -39.9809 O   0  0  0  0  0  0
  -29.5570   25.9623  -38.2208 N   0  0  0  0  0  0
  -30.4432   24.8690  -38.2501 O   0  0  0  0  0  0
  -22.2548   33.0217  -38.8471 H   0  0  0  0  0  0
  -22.2885   30.9922  -38.2309 H   0  0  0  0  0  0
  -21.5738   30.4690  -39.7617 H   0  0  0  0  0  0
  -23.9577   29.7425  -39.5815 H   0  0  0  0  0  0
  -23.7353   30.8218  -40.9347 H   0  0  0  0  0  0
  -24.6172   32.7040  -39.5810 H   0  0  0  0  0  0
  -24.8430   31.6688  -38.1942 H   0  0  0  0  0  0
  -27.4021   34.1033  -40.9184 H   0  0  0  0  0  0
  -25.7278   33.7795  -40.9106 H   0  0  0  0  0  0
  -27.6744   33.2690  -43.1683 H   0  0  0  0  0  0
  -26.3011   34.3010  -43.1561 H   0  0  0  0  0  0
  -24.0122   33.4148  -43.5547 H   0  0  0  0  0  0
  -22.7152   31.6317  -44.6738 H   0  0  0  0  0  0
  -23.8101   29.4542  -45.1806 H   0  0  0  0  0  0
  -26.1191   29.0302  -44.4992 H   0  0  0  0  0  0
  -27.4130   30.8064  -43.3742 H   0  0  0  0  0  0
  -29.9306   29.2690  -40.5474 H   0  0  0  0  0  0
  -27.2804   27.2343  -37.8245 H   0  0  0  0  0  0
  -25.6637   29.0529  -37.9810 H   0  0  0  0  0  0
  -28.8865   25.9215  -37.4656 H   0  0  0  0  0  0
  -29.8643   24.0903  -38.2183 H   0  0  0  0  0  0
  1  2  1  0  0  0
  1 26  1  0  0  0
  2  3  1  0  0  0
  2 27  1  0  0  0
  2 28  1  0  0  0
  3  4  1  0  0  0
  3 29  1  0  0  0
  3 30  1  0  0  0
  4  5  1  0  0  0
  4 31  1  0  0  0
  4 32  1  0  0  0
  5  6  1  0  0  0
  5 21  1  0  0  0
  6  7  1  0  0  0
  6 15  2  0  0  0
  7  8  1  0  0  0
  7 33  1  0  0  0
  7 34  1  0  0  0
  8  9  1  0  0  0
  8 35  1  0  0  0
  8 36  1  0  0  0
  9 10  2  0  0  0
  9 14  1  0  0  0
 10 11  1  0  0  0
 10 37  1  0  0  0
 11 12  2  0  0  0
 11 38  1  0  0  0
 12 13  1  0  0  0
 12 39  1  0  0  0
 13 14  2  0  0  0
 13 40  1  0  0  0
 14 41  1  0  0  0
 15 16  1  0  0  0
 16 17  2  0  0  0
 16 21  1  0  0  0
 17 18  1  0  0  0
 17 42  1  0  0  0
 18 19  2  0  0  0
 18 22  1  0  0  0
 19 20  1  0  0  0
 19 43  1  0  0  0
 20 21  2  0  0  0
 20 44  1  0  0  0
 22 23  2  0  0  0
 22 24  1  0  0  0
 24 25  1  0  0  0
 24 45  1  0  0  0
 25 46  1  0  0  0
M  END
> <s_m_entry_id>
52804

> <s_m_entry_name>
dock_pv.23

> <s_m_Source_Path>
/home/csk/Desktop/cluster/DUD-E-result/hdac8

> <s_m_Source_File>
dock_pv.maegz

> <i_m_Source_File_Index>
23

> <chembl_id>
CHEMBL464718

> <chembl_pref_name>
None

> <i_lp_mmshare_version>
53161

> <i_f3d_flags>
0

> <r_lp_tautomer_probability>
1

> <s_lp_Force_Field>
OPLS_2005

> <r_lp_Energy>
21.393887

> <b_lp_Chiralities_Consistent>
1

> <s_lp_Variant>
CHEMBL3192_lig800-1

> <s_i_glide_gridfile>
glide-grid_3f07

> <i_i_glide_lignum>
854

> <i_i_glide_rotatable_bonds>
10

> <r_i_docking_score>
-8.42596688349448

> <r_i_glide_ligand_efficiency>
-0.337038675339779

> <r_i_glide_ligand_efficiency_sa>
-0.985507064099874

> <r_i_glide_ligand_efficiency_ln>
-1.99720665723972

> <r_i_glide_gscore>
-8.42596688349448

> <r_i_glide_lipo>
-1.49957618541239

> <r_i_glide_hbond>
-0.432

> <r_i_glide_metal>
-2.3

> <r_i_glide_rewards>
-1.29461758233471

> <r_i_glide_evdw>
-16.8074150085449

> <r_i_glide_ecoul>
-20.7298622131348

> <r_i_glide_erotb>
1.31434877829471

> <r_i_glide_esite>
-0.264271811644639

> <r_i_glide_emodel>
-60.4771660789205

> <r_i_glide_energy>
-37.5372772216797

> <r_i_glide_einternal>
5.39824914932251

> <i_i_glide_confnum>
13

> <i_i_glide_posenum>
127

> <r_i_glide_eff_state_penalty>
0

> <s_user_duplicate_titles>
CHEMBL3192_lig800

> <s_m_subgroup_title>
dock_pv

> <s_m_subgroupid>
dock_pv

> <b_m_subgroup_collapsed>
1

$$$$
CHEMBL3192_lig718
                    3D
 Schrodinger Suite 2021-1.
 40 42  0  0  1  0            999 V2000
  -26.6136   32.8609  -39.9805 N   0  0  2  0  0  0
  -30.2133   26.5494  -39.5788 O   0  0  0  0  0  0
  -26.4852   33.7729  -42.2882 C   0  0  0  0  0  0
  -29.0129   29.1522  -39.9846 C   0  0  0  0  0  0
  -28.2179   30.2390  -40.3364 C   0  0  0  0  0  0
  -27.3595   28.4290  -38.4017 C   0  0  0  0  0  0
  -29.4205   26.9860  -38.7413 C   0  0  0  0  0  0
  -26.0462   31.5308  -40.2052 C   0  0  0  0  0  0
  -26.5818   32.6446  -45.5997 C   0  0  0  0  0  0
  -25.9422   33.0870  -43.2549 N   0  0  0  0  0  0
  -28.5836   28.2141  -39.0359 C   0  0  0  0  0  0
  -27.6387   34.3903  -42.6417 O   0  0  0  0  0  0
  -26.7822   33.2871  -44.2548 C   0  0  0  0  0  0
  -26.5530   29.5119  -38.7566 C   0  0  0  0  0  0
  -27.8122   34.0685  -43.9863 N   0  0  0  0  0  0
  -26.9726   30.4143  -39.7344 C   0  0  0  0  0  0
  -29.4152   26.4909  -37.4999 N   0  0  0  0  0  0
  -26.0180   33.8759  -40.8488 C   0  0  0  0  0  0
  -25.3782   31.9896  -45.8981 C   0  0  0  0  0  0
  -25.1966   31.3677  -47.1294 C   0  0  0  0  0  0
  -26.2203   31.3881  -48.0722 C   0  0  0  0  0  0
  -27.4130   32.0534  -47.7999 C   0  0  0  0  0  0
  -27.5945   32.6772  -46.5685 C   0  0  0  0  0  0
  -30.2129   25.3623  -37.2224 O   0  0  0  0  0  0
  -26.0138   30.5718  -49.5797 Cl  0  0  0  0  0  0
  -26.3159   33.1423  -39.0443 H   0  0  0  0  0  0
  -29.9588   29.0331  -40.4924 H   0  0  0  0  0  0
  -28.5508   30.9258  -41.1012 H   0  0  0  0  0  0
  -27.0129   27.7272  -37.6586 H   0  0  0  0  0  0
  -25.0922   31.4675  -39.6777 H   0  0  0  0  0  0
  -25.8246   31.3485  -41.2571 H   0  0  0  0  0  0
  -25.5847   29.6287  -38.2921 H   0  0  0  0  0  0
  -28.8790   26.8207  -36.6999 H   0  0  0  0  0  0
  -26.2983   34.8551  -40.4582 H   0  0  0  0  0  0
  -24.9289   33.8382  -40.7786 H   0  0  0  0  0  0
  -24.5755   31.9557  -45.1755 H   0  0  0  0  0  0
  -24.2644   30.8683  -47.3461 H   0  0  0  0  0  0
  -28.2061   32.0698  -48.5336 H   0  0  0  0  0  0
  -28.5336   33.1736  -46.3700 H   0  0  0  0  0  0
  -29.5830   24.6327  -37.1810 H   0  0  0  0  0  0
  1 18  1  0  0  0
  1  8  1  0  0  0
  1 26  1  0  0  0
  2  7  2  0  0  0
  3 12  1  0  0  0
  3 10  2  0  0  0
  3 18  1  0  0  0
  4  5  1  0  0  0
  4 11  2  0  0  0
  4 27  1  0  0  0
  5 16  2  0  0  0
  5 28  1  0  0  0
  6 14  2  0  0  0
  6 11  1  0  0  0
  6 29  1  0  0  0
  7 11  1  0  0  0
  7 17  1  0  0  0
  8 16  1  0  0  0
  8 30  1  0  0  0
  8 31  1  0  0  0
  9 13  1  0  0  0
  9 19  1  0  0  0
  9 23  2  0  0  0
 10 13  1  0  0  0
 12 15  1  0  0  0
 13 15  2  0  0  0
 14 16  1  0  0  0
 14 32  1  0  0  0
 17 24  1  0  0  0
 17 33  1  0  0  0
 18 34  1  0  0  0
 18 35  1  0  0  0
 19 20  2  0  0  0
 19 36  1  0  0  0
 20 21  1  0  0  0
 20 37  1  0  0  0
 21 22  2  0  0  0
 21 25  1  0  0  0
 22 23  1  0  0  0
 22 38  1  0  0  0
 23 39  1  0  0  0
 24 40  1  0  0  0
M  END
> <s_m_entry_id>
52805

> <s_m_entry_name>
dock_pv.24

> <s_m_Source_Path>
/home/csk/Desktop/cluster/DUD-E-result/hdac8

> <s_m_Source_File>
dock_pv.maegz

> <i_m_Source_File_Index>
24

> <chembl_id>
CHEMBL3421751

> <chembl_pref_name>
None

> <i_lp_mmshare_version>
53161

> <i_f3d_flags>
0

> <r_lp_tautomer_probability>
1

> <s_lp_Force_Field>
OPLS_2005

> <r_lp_Energy>
29.724975

> <b_lp_Chiralities_Consistent>
1

> <s_lp_Variant>
CHEMBL3192_lig718-1

> <s_i_glide_gridfile>
glide-grid_3f07

> <i_i_glide_lignum>
762

> <i_i_glide_rotatable_bonds>
8

> <r_i_docking_score>
-8.42160008528773

> <r_i_glide_ligand_efficiency>
-0.336864003411509

> <r_i_glide_ligand_efficiency_sa>
-0.984996320283791

> <r_i_glide_ligand_efficiency_ln>
-1.99617159520234

> <r_i_glide_gscore>
-8.42160008528773

> <r_i_glide_lipo>
-1.27691540962425

> <r_i_glide_hbond>
-0.70274639673315

> <r_i_glide_metal>
-2.3

> <r_i_glide_rewards>
-1.21971780687928

> <r_i_glide_evdw>
-22.708776473999

> <r_i_glide_ecoul>
-17.4413986206055

> <r_i_glide_erotb>
1.04191964370759

> <r_i_glide_esite>
-0.212491498967864

> <r_i_glide_emodel>
-64.1595088654132

> <r_i_glide_energy>
-40.1501750946045

> <r_i_glide_einternal>
2.77886009216309

> <i_i_glide_confnum>
16

> <i_i_glide_posenum>
268

> <r_i_glide_eff_state_penalty>
0

> <s_user_duplicate_titles>
CHEMBL3192_lig718

> <s_m_subgroup_title>
dock_pv

> <s_m_subgroupid>
dock_pv

> <b_m_subgroup_collapsed>
1

$$$$
CHEMBL3192_lig681
                    3D
 Schrodinger Suite 2021-1.
 43 45  0  0  1  0            999 V2000
  -29.0130   28.9899  -39.9935 C   0  0  0  0  0  0
  -28.6374   28.0541  -39.0241 C   0  0  0  0  0  0
  -27.4130   28.2252  -38.3810 C   0  0  0  0  0  0
  -28.1590   30.0149  -40.3808 C   0  0  0  0  0  0
  -26.9102   30.1402  -39.7737 C   0  0  0  0  0  0
  -26.5641   29.2690  -38.7461 C   0  0  0  0  0  0
  -29.5449   26.8841  -38.7163 C   0  0  0  0  0  0
  -29.5882   26.4690  -37.4458 N   0  0  0  0  0  0
  -30.3225   26.4690  -39.5810 O   0  0  0  0  0  0
  -30.3924   25.3569  -37.1356 O   0  0  0  0  0  0
  -25.9561   31.0884  -40.1781 N   0  0  0  0  0  0
  -25.9644   31.7626  -41.4842 C   0  0  1  0  0  0
  -24.8439   32.7847  -41.5902 C   0  0  0  0  0  0
  -24.4360   32.7416  -43.0512 C   0  0  0  0  0  0
  -24.7980   31.3867  -43.4548 N   0  0  0  0  0  0
  -25.6848   30.7707  -42.6382 C   0  0  0  0  0  0
  -26.2120   29.6690  -42.8053 O   0  0  0  0  0  0
  -24.3489   30.7935  -44.7190 C   0  0  0  0  0  0
  -25.0836   31.2690  -45.9669 C   0  0  0  0  0  0
  -24.3441   31.6716  -47.0823 C   0  0  0  0  0  0
  -24.9985   32.0727  -48.2443 C   0  0  0  0  0  0
  -26.3910   32.0677  -48.2889 C   0  0  0  0  0  0
  -27.1345   31.6690  -47.1810 C   0  0  0  0  0  0
  -26.4816   31.2690  -46.0189 C   0  0  0  0  0  0
  -29.9604   28.9077  -40.5044 H   0  0  0  0  0  0
  -27.0833   27.5298  -37.6227 H   0  0  0  0  0  0
  -28.4640   30.6795  -41.1737 H   0  0  0  0  0  0
  -25.5984   29.3538  -38.2701 H   0  0  0  0  0  0
  -29.0295   26.8021  -36.6652 H   0  0  0  0  0  0
  -29.7636   24.6314  -37.0462 H   0  0  0  0  0  0
  -25.1586   31.2505  -39.5780 H   0  0  0  0  0  0
  -26.9204   32.2491  -41.6815 H   0  0  0  0  0  0
  -25.1470   33.7867  -41.2833 H   0  0  0  0  0  0
  -23.9915   32.5097  -40.9641 H   0  0  0  0  0  0
  -23.3703   32.9325  -43.1856 H   0  0  0  0  0  0
  -24.9984   33.4628  -43.6468 H   0  0  0  0  0  0
  -23.2824   30.9974  -44.8261 H   0  0  0  0  0  0
  -24.4451   29.7067  -44.6829 H   0  0  0  0  0  0
  -23.2637   31.6710  -47.0546 H   0  0  0  0  0  0
  -24.4290   32.3857  -49.1072 H   0  0  0  0  0  0
  -26.9010   32.3756  -49.1901 H   0  0  0  0  0  0
  -28.2130   31.6635  -47.2288 H   0  0  0  0  0  0
  -27.0650   30.9465  -45.1692 H   0  0  0  0  0  0
  1  2  2  0  0  0
  1  4  1  0  0  0
  1 25  1  0  0  0
  2  3  1  0  0  0
  2  7  1  0  0  0
  3  6  2  0  0  0
  3 26  1  0  0  0
  4  5  2  0  0  0
  4 27  1  0  0  0
  5  6  1  0  0  0
  5 11  1  0  0  0
  6 28  1  0  0  0
  7  8  1  0  0  0
  7  9  2  0  0  0
  8 10  1  0  0  0
  8 29  1  0  0  0
 10 30  1  0  0  0
 11 12  1  0  0  0
 11 31  1  0  0  0
 12 13  1  0  0  0
 12 16  1  0  0  0
 12 32  1  0  0  0
 13 14  1  0  0  0
 13 33  1  0  0  0
 13 34  1  0  0  0
 14 15  1  0  0  0
 14 35  1  0  0  0
 14 36  1  0  0  0
 15 16  1  0  0  0
 15 18  1  0  0  0
 16 17  2  0  0  0
 18 19  1  0  0  0
 18 37  1  0  0  0
 18 38  1  0  0  0
 19 20  2  0  0  0
 19 24  1  0  0  0
 20 21  1  0  0  0
 20 39  1  0  0  0
 21 22  2  0  0  0
 21 40  1  0  0  0
 22 23  1  0  0  0
 22 41  1  0  0  0
 23 24  2  0  0  0
 23 42  1  0  0  0
 24 43  1  0  0  0
M  END
> <s_m_entry_id>
52806

> <s_m_entry_name>
dock_pv.25

> <s_m_Source_Path>
/home/csk/Desktop/cluster/DUD-E-result/hdac8

> <s_m_Source_File>
dock_pv.maegz

> <i_m_Source_File_Index>
25

> <chembl_id>
CHEMBL3415451

> <chembl_pref_name>
None

> <i_lp_mmshare_version>
53161

> <i_f3d_flags>
0

> <r_lp_tautomer_probability>
1

> <s_lp_Force_Field>
OPLS_2005

> <r_lp_Energy>
33.727811

> <b_lp_Chiralities_Consistent>
1

> <s_lp_Variant>
CHEMBL3192_lig681-2

> <s_i_glide_gridfile>
glide-grid_3f07

> <i_i_glide_lignum>
713

> <i_i_glide_rotatable_bonds>
7

> <r_i_docking_score>
-8.41501776795776

> <r_i_glide_ligand_efficiency>
-0.350625740331573

> <r_i_glide_ligand_efficiency_sa>
-1.01137964559245

> <r_i_glide_ligand_efficiency_ln>
-2.01409989187644

> <r_i_glide_gscore>
-8.41501776795776

> <r_i_glide_lipo>
-1.45594076721773

> <r_i_glide_hbond>
-0.694736565935236

> <r_i_glide_metal>
-2.3

> <r_i_glide_rewards>
-1.38032971316774

> <r_i_glide_evdw>
-24.0909023284912

> <r_i_glide_ecoul>
-14.9853038787842

> <r_i_glide_erotb>
1.06216596650853

> <r_i_glide_esite>
-0.193835989903397

> <r_i_glide_emodel>
-61.824962887053

> <r_i_glide_energy>
-39.0762062072754

> <r_i_glide_einternal>
3.89457750320435

> <i_i_glide_confnum>
91

> <i_i_glide_posenum>
240

> <r_i_glide_eff_state_penalty>
0

> <s_user_duplicate_titles>
CHEMBL3192_lig681

> <s_m_subgroup_title>
dock_pv

> <s_m_subgroupid>
dock_pv

> <b_m_subgroup_collapsed>
1

$$$$
CHEMBL3192_lig225
                    3D
 Schrodinger Suite 2021-1.
 37 39  0  0  1  0            999 V2000
  -24.9119   31.5996  -46.9218 C   0  0  0  0  0  0
  -23.6010   31.8964  -46.5462 C   0  0  0  0  0  0
  -23.1797   31.8287  -45.2153 C   0  0  0  0  0  0
  -25.8683   31.2154  -45.9779 C   0  0  0  0  0  0
  -26.2117   30.7881  -43.5433 N   0  0  0  0  0  0
  -25.4732   31.1390  -44.6352 C   0  0  0  0  0  0
  -24.1419   31.4502  -44.2682 C   0  0  0  0  0  0
  -24.1129   31.2682  -42.8961 N   0  0  0  0  0  0
  -25.4015   30.8971  -42.5139 C   0  0  0  0  0  0
  -25.8646   30.5746  -41.1145 C   0  0  0  0  0  0
  -25.3038   31.1502  -39.9688 C   0  0  0  0  0  0
  -25.7204   30.7531  -38.7007 C   0  0  0  0  0  0
  -26.7209   29.7945  -38.5569 C   0  0  0  0  0  0
  -27.3570   29.2609  -39.6777 C   0  0  0  0  0  0
  -26.9248   29.6696  -40.9429 C   0  0  0  0  0  0
  -28.4621   28.2863  -39.5761 C   0  0  0  0  0  0
  -28.6722   27.3646  -38.6034 C   0  0  0  0  0  0
  -29.8129   26.4696  -38.6329 C   0  0  0  0  0  0
  -29.9534   25.6881  -37.5513 N   0  0  0  0  0  0
  -30.6130   26.4690  -39.5786 O   0  0  0  0  0  0
  -31.0126   24.7629  -37.5265 O   0  0  0  0  0  0
  -22.9445   31.5098  -42.0553 C   0  0  0  0  0  0
  -25.1917   31.6703  -47.9622 H   0  0  0  0  0  0
  -22.8902   32.1944  -47.3057 H   0  0  0  0  0  0
  -22.1609   32.0574  -44.9411 H   0  0  0  0  0  0
  -26.8825   30.9863  -46.2707 H   0  0  0  0  0  0
  -24.5478   31.9182  -40.0355 H   0  0  0  0  0  0
  -25.2637   31.1993  -37.8302 H   0  0  0  0  0  0
  -27.0263   29.4933  -37.5708 H   0  0  0  0  0  0
  -27.4099   29.2691  -41.8180 H   0  0  0  0  0  0
  -29.1769   28.3726  -40.3808 H   0  0  0  0  0  0
  -27.9854   27.2691  -37.7753 H   0  0  0  0  0  0
  -29.3574   25.6346  -36.7368 H   0  0  0  0  0  0
  -30.5678   23.9061  -37.5814 H   0  0  0  0  0  0
  -22.0359   31.2804  -42.6127 H   0  0  0  0  0  0
  -22.9271   32.5590  -41.7577 H   0  0  0  0  0  0
  -22.9554   30.8691  -41.1753 H   0  0  0  0  0  0
  1  2  2  0  0  0
  1  4  1  0  0  0
  1 23  1  0  0  0
  2  3  1  0  0  0
  2 24  1  0  0  0
  3  7  2  0  0  0
  3 25  1  0  0  0
  4  6  2  0  0  0
  4 26  1  0  0  0
  5  6  1  0  0  0
  5  9  2  0  0  0
  6  7  1  0  0  0
  7  8  1  0  0  0
  8  9  1  0  0  0
  8 22  1  0  0  0
  9 10  1  0  0  0
 10 11  2  0  0  0
 10 15  1  0  0  0
 11 12  1  0  0  0
 11 27  1  0  0  0
 12 13  2  0  0  0
 12 28  1  0  0  0
 13 14  1  0  0  0
 13 29  1  0  0  0
 14 15  2  0  0  0
 14 16  1  0  0  0
 15 30  1  0  0  0
 16 17  2  0  0  0
 16 31  1  0  0  0
 17 18  1  0  0  0
 17 32  1  0  0  0
 18 19  1  0  0  0
 18 20  2  0  0  0
 19 21  1  0  0  0
 19 33  1  0  0  0
 21 34  1  0  0  0
 22 35  1  0  0  0
 22 36  1  0  0  0
 22 37  1  0  0  0
M  END
> <s_m_entry_id>
52807

> <s_m_entry_name>
dock_pv.26

> <s_m_Source_Path>
/home/csk/Desktop/cluster/DUD-E-result/hdac8

> <s_m_Source_File>
dock_pv.maegz

> <i_m_Source_File_Index>
26

> <chembl_id>
CHEMBL1098379

> <chembl_pref_name>
None

> <i_lp_mmshare_version>
53161

> <i_f3d_flags>
0

> <r_lp_tautomer_probability>
1

> <s_lp_Force_Field>
OPLS_2005

> <r_lp_Energy>
25.491952

> <b_lp_Chiralities_Consistent>
1

> <s_lp_Variant>
CHEMBL3192_lig225-1

> <s_i_glide_gridfile>
glide-grid_3f07

> <i_i_glide_lignum>
235

> <i_i_glide_rotatable_bonds>
5

> <r_i_docking_score>
-8.41223925194543

> <r_i_glide_ligand_efficiency>
-0.382374511452065

> <r_i_glide_ligand_efficiency_sa>
-1.07142841902488

> <r_i_glide_ligand_efficiency_ln>
-2.05625811705764

> <r_i_glide_gscore>
-8.41223925194543

> <r_i_glide_lipo>
-1.29289150553636

> <r_i_glide_hbond>
-0.307162399638649

> <r_i_glide_metal>
-2.3

> <r_i_glide_rewards>
-1.60367128490625

> <r_i_glide_evdw>
-27.8113021850586

> <r_i_glide_ecoul>
-14.8287572860718

> <r_i_glide_erotb>
0.849451577803832

> <r_i_glide_esite>
-0.143086937504307

> <r_i_glide_emodel>
-68.70832436924

> <r_i_glide_energy>
-42.6400594711304

> <r_i_glide_einternal>
2.74220323562622

> <i_i_glide_confnum>
1

> <i_i_glide_posenum>
368

> <r_i_glide_eff_state_penalty>
0

> <s_user_duplicate_titles>
CHEMBL3192_lig225,626414

> <s_m_subgroup_title>
dock_pv

> <s_m_subgroupid>
dock_pv

> <b_m_subgroup_collapsed>
1

$$$$
CHEMBL3192_lig927
                    3D
 Schrodinger Suite 2021-1.
 45 46  0  0  1  0            999 V2000
  -28.9688   33.6874  -47.0588 C   0  0  0  0  0  0
  -27.8409   32.9468  -46.4919 N   0  0  0  0  0  0
  -27.5104   31.6612  -47.1090 C   0  0  0  0  0  0
  -27.3076   33.3118  -45.2247 C   0  0  0  0  0  0
  -27.6440   34.5339  -44.6194 C   0  0  0  0  0  0
  -27.1164   34.8967  -43.3812 C   0  0  0  0  0  0
  -26.2494   34.0356  -42.7033 C   0  0  0  0  0  0
  -25.6873   34.4300  -41.3477 C   0  0  0  0  0  0
  -25.5640   33.4917  -40.3810 N   0  0  0  0  0  0
  -26.3092   32.3665  -40.3810 N   0  0  0  0  0  0
  -25.9613   31.3879  -39.6330 C   0  0  0  0  0  0
  -24.5886   31.2520  -38.9524 C   0  0  0  0  0  0
  -26.9078   30.2549  -39.4567 C   0  0  0  0  0  0
  -28.1379   30.2535  -40.1285 C   0  0  0  0  0  0
  -29.0297   29.2054  -39.9884 C   0  0  0  0  0  0
  -28.7381   28.1012  -39.1810 C   0  0  0  0  0  0
  -29.7217   26.9485  -39.1280 C   0  0  0  0  0  0
  -29.6385   26.0690  -38.1190 N   0  0  0  0  0  0
  -30.4915   24.9454  -38.1408 O   0  0  0  0  0  0
  -30.6130   26.8690  -39.9810 O   0  0  0  0  0  0
  -27.5213   28.0945  -38.4951 C   0  0  0  0  0  0
  -26.6258   29.1568  -38.6323 C   0  0  0  0  0  0
  -25.3494   35.5958  -41.1474 O   0  0  0  0  0  0
  -25.8929   32.8236  -43.3075 C   0  0  0  0  0  0
  -26.4185   32.4669  -44.5446 C   0  0  0  0  0  0
  -29.8130   33.6690  -46.3696 H   0  0  0  0  0  0
  -28.7056   34.7314  -47.2308 H   0  0  0  0  0  0
  -29.3091   33.2658  -48.0058 H   0  0  0  0  0  0
  -28.0085   30.8472  -46.5808 H   0  0  0  0  0  0
  -27.8130   31.6262  -48.1560 H   0  0  0  0  0  0
  -26.4376   31.4699  -47.0822 H   0  0  0  0  0  0
  -28.3122   35.2292  -45.1024 H   0  0  0  0  0  0
  -27.3933   35.8485  -42.9490 H   0  0  0  0  0  0
  -25.0974   33.6974  -39.4987 H   0  0  0  0  0  0
  -24.6941   31.2332  -37.8703 H   0  0  0  0  0  0
  -24.0796   30.3429  -39.2744 H   0  0  0  0  0  0
  -23.9046   32.0690  -39.1810 H   0  0  0  0  0  0
  -28.4193   31.0639  -40.7857 H   0  0  0  0  0  0
  -29.9540   29.2637  -40.5455 H   0  0  0  0  0  0
  -29.0130   26.0916  -37.3244 H   0  0  0  0  0  0
  -29.8944   24.1865  -38.0439 H   0  0  0  0  0  0
  -27.2457   27.2690  -37.8577 H   0  0  0  0  0  0
  -25.6955   29.0946  -38.0893 H   0  0  0  0  0  0
  -25.2057   32.1442  -42.8228 H   0  0  0  0  0  0
  -26.1203   31.5157  -44.9550 H   0  0  0  0  0  0
  1  2  1  0  0  0
  1 26  1  0  0  0
  1 27  1  0  0  0
  1 28  1  0  0  0
  2  3  1  0  0  0
  2  4  1  0  0  0
  3 29  1  0  0  0
  3 30  1  0  0  0
  3 31  1  0  0  0
  4  5  2  0  0  0
  4 25  1  0  0  0
  5  6  1  0  0  0
  5 32  1  0  0  0
  6  7  2  0  0  0
  6 33  1  0  0  0
  7  8  1  0  0  0
  7 24  1  0  0  0
  8  9  1  0  0  0
  8 23  2  0  0  0
  9 10  1  0  0  0
  9 34  1  0  0  0
 10 11  2  0  0  0
 11 12  1  0  0  0
 11 13  1  0  0  0
 12 35  1  0  0  0
 12 36  1  0  0  0
 12 37  1  0  0  0
 13 14  2  0  0  0
 13 22  1  0  0  0
 14 15  1  0  0  0
 14 38  1  0  0  0
 15 16  2  0  0  0
 15 39  1  0  0  0
 16 17  1  0  0  0
 16 21  1  0  0  0
 17 18  1  0  0  0
 17 20  2  0  0  0
 18 19  1  0  0  0
 18 40  1  0  0  0
 19 41  1  0  0  0
 21 22  2  0  0  0
 21 42  1  0  0  0
 22 43  1  0  0  0
 24 25  2  0  0  0
 24 44  1  0  0  0
 25 45  1  0  0  0
M  END
> <s_m_entry_id>
52808

> <s_m_entry_name>
dock_pv.27

> <s_m_Source_Path>
/home/csk/Desktop/cluster/DUD-E-result/hdac8

> <s_m_Source_File>
dock_pv.maegz

> <i_m_Source_File_Index>
27

> <chembl_id>
CHEMBL3764728

> <chembl_pref_name>
None

> <i_lp_mmshare_version>
53161

> <i_f3d_flags>
0

> <r_lp_tautomer_probability>
1

> <s_lp_Force_Field>
OPLS_2005

> <r_lp_Energy>
34.813037

> <b_lp_Chiralities_Consistent>
1

> <s_lp_Variant>
CHEMBL3192_lig927-1

> <s_i_glide_gridfile>
glide-grid_3f07

> <i_i_glide_lignum>
988

> <i_i_glide_rotatable_bonds>
8

> <r_i_docking_score>
-8.41167540360996

> <r_i_glide_ligand_efficiency>
-0.336467016144398

> <r_i_glide_ligand_efficiency_sa>
-0.983835522474161

> <r_i_glide_ligand_efficiency_ln>
-1.99381914822599

> <r_i_glide_gscore>
-8.41167540360996

> <r_i_glide_lipo>
-1.14009509709888

> <r_i_glide_hbond>
-0.432

> <r_i_glide_metal>
-2.3

> <r_i_glide_rewards>
-1.32816977639054

> <r_i_glide_evdw>
-22.1554393768311

> <r_i_glide_ecoul>
-18.1695671081543

> <r_i_glide_erotb>
0.980694765511703

> <r_i_glide_esite>
-0.358898260567537

> <r_i_glide_emodel>
-59.4015727802647

> <r_i_glide_energy>
-40.3250064849854

> <r_i_glide_einternal>
13.737325668335

> <i_i_glide_confnum>
3

> <i_i_glide_posenum>
370

> <r_i_glide_eff_state_penalty>
0

> <s_user_duplicate_titles>
CHEMBL3192_lig927

> <s_m_subgroup_title>
dock_pv

> <s_m_subgroupid>
dock_pv

> <b_m_subgroup_collapsed>
1

$$$$
CHEMBL3192_lig128
                    3D
 Schrodinger Suite 2021-1.
 47 50  0  0  1  0            999 V2000
  -23.4130   30.8690  -44.2341 C   0  0  0  0  0  0
  -24.5259   30.4690  -44.9698 C   0  0  0  0  0  0
  -25.7886   30.4632  -44.3810 C   0  0  0  0  0  0
  -25.9413   30.8552  -43.0514 C   0  0  0  0  0  0
  -23.5672   31.2748  -42.9067 C   0  0  0  0  0  0
  -24.8371   31.2730  -42.2949 C   0  0  0  0  0  0
  -24.9069   31.6127  -40.9328 N   0  0  0  0  0  0
  -23.8373   32.5069  -40.3861 C   0  0  1  0  0  0
  -22.4256   32.0738  -40.9089 C   0  0  0  0  0  0
  -22.4403   31.6690  -42.1890 N   0  0  0  0  0  0
  -26.1628   31.8771  -40.2054 C   0  0  0  0  0  0
  -26.9736   30.6271  -39.8785 C   0  0  0  0  0  0
  -28.2499   30.4694  -40.4157 C   0  0  0  0  0  0
  -29.0131   29.3556  -40.0868 C   0  0  0  0  0  0
  -28.5363   28.3954  -39.1870 C   0  0  0  0  0  0
  -27.2532   28.5602  -38.6554 C   0  0  0  0  0  0
  -26.4755   29.6686  -38.9955 C   0  0  0  0  0  0
  -21.4105   32.0070  -40.2212 O   0  0  0  0  0  0
  -29.4130   27.2258  -38.7950 C   0  0  0  0  0  0
  -29.4130   26.8690  -37.5164 N   0  0  0  0  0  0
  -30.2130   26.7208  -39.5810 O   0  0  0  0  0  0
  -30.2130   25.7827  -37.1067 O   0  0  0  0  0  0
  -24.0106   34.0476  -40.6006 C   0  0  0  0  0  0
  -24.2439   34.5084  -42.0312 C   0  0  0  0  0  0
  -23.3067   34.8488  -43.0070 C   0  0  0  0  0  0
  -23.8574   35.2222  -44.2357 C   0  0  0  0  0  0
  -25.2392   35.1937  -44.2241 C   0  0  0  0  0  0
  -25.8530   34.7065  -42.6819 S   0  0  0  0  0  0
  -22.4372   30.8698  -44.7008 H   0  0  0  0  0  0
  -24.4096   30.1618  -45.9978 H   0  0  0  0  0  0
  -26.6502   30.1528  -44.9541 H   0  0  0  0  0  0
  -26.9291   30.8358  -42.6268 H   0  0  0  0  0  0
  -23.7647   32.3383  -39.3089 H   0  0  0  0  0  0
  -21.5250   31.4997  -42.5766 H   0  0  0  0  0  0
  -26.7651   32.5824  -40.7784 H   0  0  0  0  0  0
  -25.9784   32.3703  -39.2482 H   0  0  0  0  0  0
  -28.6537   31.2077  -41.0922 H   0  0  0  0  0  0
  -29.9980   29.2683  -40.5219 H   0  0  0  0  0  0
  -26.8502   27.8276  -37.9752 H   0  0  0  0  0  0
  -25.4877   29.7840  -38.5717 H   0  0  0  0  0  0
  -28.8232   27.2488  -36.7811 H   0  0  0  0  0  0
  -29.5823   25.0690  -36.9624 H   0  0  0  0  0  0
  -23.1480   34.5684  -40.1797 H   0  0  0  0  0  0
  -24.8381   34.3927  -39.9810 H   0  0  0  0  0  0
  -22.2421   34.8129  -42.8284 H   0  0  0  0  0  0
  -23.2682   35.5040  -45.0962 H   0  0  0  0  0  0
  -25.9149   35.4366  -45.0309 H   0  0  0  0  0  0
  1  2  2  0  0  0
  1  5  1  0  0  0
  1 29  1  0  0  0
  2  3  1  0  0  0
  2 30  1  0  0  0
  3  4  2  0  0  0
  3 31  1  0  0  0
  4  6  1  0  0  0
  4 32  1  0  0  0
  5 10  1  0  0  0
  5  6  2  0  0  0
  6  7  1  0  0  0
  7  8  1  0  0  0
  7 11  1  0  0  0
  8  9  1  0  0  0
  8 23  1  0  0  0
  8 33  1  0  0  0
  9 18  2  0  0  0
  9 10  1  0  0  0
 10 34  1  0  0  0
 11 12  1  0  0  0
 11 35  1  0  0  0
 11 36  1  0  0  0
 12 17  1  0  0  0
 12 13  2  0  0  0
 13 14  1  0  0  0
 13 37  1  0  0  0
 14 15  2  0  0  0
 14 38  1  0  0  0
 15 16  1  0  0  0
 15 19  1  0  0  0
 16 17  2  0  0  0
 16 39  1  0  0  0
 17 40  1  0  0  0
 19 20  1  0  0  0
 19 21  2  0  0  0
 20 22  1  0  0  0
 20 41  1  0  0  0
 22 42  1  0  0  0
 23 24  1  0  0  0
 23 43  1  0  0  0
 23 44  1  0  0  0
 24 25  2  0  0  0
 24 28  1  0  0  0
 25 26  1  0  0  0
 25 45  1  0  0  0
 26 27  2  0  0  0
 26 46  1  0  0  0
 27 28  1  0  0  0
 27 47  1  0  0  0
M  END
> <s_m_entry_id>
52809

> <s_m_entry_name>
dock_pv.28

> <s_m_Source_Path>
/home/csk/Desktop/cluster/DUD-E-result/hdac8

> <s_m_Source_File>
dock_pv.maegz

> <i_m_Source_File_Index>
28

> <chembl_id>
CHEMBL518957

> <chembl_pref_name>
None

> <i_lp_mmshare_version>
53161

> <i_f3d_flags>
0

> <r_lp_tautomer_probability>
1

> <s_lp_Force_Field>
OPLS_2005

> <r_lp_Energy>
27.697461

> <b_lp_Chiralities_Consistent>
1

> <s_lp_Variant>
CHEMBL3192_lig128-1

> <s_i_glide_gridfile>
glide-grid_3f07

> <i_i_glide_lignum>
137

> <i_i_glide_rotatable_bonds>
7

> <r_i_docking_score>
-8.39326839686639

> <r_i_glide_ligand_efficiency>
-0.299759585602371

> <r_i_glide_ligand_efficiency_sa>
-0.910246650843136

> <r_i_glide_ligand_efficiency_ln>
-1.93741278306525

> <r_i_glide_gscore>
-8.39326839686639

> <r_i_glide_lipo>
-1.58607504000059

> <r_i_glide_hbond>
-0.608

> <r_i_glide_metal>
-2.3

> <r_i_glide_rewards>
-1.02303992622912

> <r_i_glide_evdw>
-27.1503219604492

> <r_i_glide_ecoul>
-13.4742622375488

> <r_i_glide_erotb>
0.757120613406115

> <r_i_glide_esite>
-0.254618610388009

> <r_i_glide_emodel>
-64.6931450177018

> <r_i_glide_energy>
-40.624584197998

> <r_i_glide_einternal>
1.63507294654846

> <i_i_glide_confnum>
4

> <i_i_glide_posenum>
279

> <r_i_glide_eff_state_penalty>
0

> <s_user_duplicate_titles>
CHEMBL3192_lig128,474790

> <s_m_subgroup_title>
dock_pv

> <s_m_subgroupid>
dock_pv

> <b_m_subgroup_collapsed>
1

$$$$
CHEMBL3192_lig485
                    3D
 Schrodinger Suite 2021-1.
 23 23  0  0  1  0            999 V2000
  -29.6712   26.9674  -39.1810 C   0  0  0  0  0  0
  -29.4398   26.0149  -38.2794 N   0  0  0  0  0  0
  -30.6130   26.8690  -39.9810 O   0  0  0  0  0  0
  -30.2406   24.8690  -38.3266 O   0  0  0  0  0  0
  -28.8988   28.3112  -39.0537 C   0  0  0  0  0  0
  -27.3914   28.0690  -38.8661 C   0  0  0  0  0  0
  -26.6662   29.4190  -38.6486 C   0  0  0  0  0  0
  -26.9351   30.4323  -39.7764 C   0  0  0  0  0  0
  -28.4425   30.6187  -40.0286 C   0  0  0  0  0  0
  -29.1462   29.2690  -40.2568 C   0  0  0  0  0  0
  -28.7947   26.0299  -37.5006 H   0  0  0  0  0  0
  -29.6088   24.1312  -38.2919 H   0  0  0  0  0  0
  -29.2849   28.7215  -38.1176 H   0  0  0  0  0  0
  -27.1775   27.4690  -37.9810 H   0  0  0  0  0  0
  -26.9594   27.6238  -39.7637 H   0  0  0  0  0  0
  -26.9933   29.8502  -37.7013 H   0  0  0  0  0  0
  -25.5909   29.2649  -38.5489 H   0  0  0  0  0  0
  -26.4747   31.3911  -39.5319 H   0  0  0  0  0  0
  -26.4515   30.0892  -40.6926 H   0  0  0  0  0  0
  -28.8984   31.1306  -39.1810 H   0  0  0  0  0  0
  -28.5928   31.2678  -40.8923 H   0  0  0  0  0  0
  -28.7157   28.8690  -41.1742 H   0  0  0  0  0  0
  -30.2041   29.5040  -40.3811 H   0  0  0  0  0  0
  1  2  1  0  0  0
  1  3  2  0  0  0
  1  5  1  0  0  0
  2  4  1  0  0  0
  2 11  1  0  0  0
  4 12  1  0  0  0
  5  6  1  0  0  0
  5 10  1  0  0  0
  5 13  1  0  0  0
  6  7  1  0  0  0
  6 14  1  0  0  0
  6 15  1  0  0  0
  7  8  1  0  0  0
  7 16  1  0  0  0
  7 17  1  0  0  0
  8  9  1  0  0  0
  8 18  1  0  0  0
  8 19  1  0  0  0
  9 10  1  0  0  0
  9 20  1  0  0  0
  9 21  1  0  0  0
 10 22  1  0  0  0
 10 23  1  0  0  0
M  END
> <s_m_entry_id>
52810

> <s_m_entry_name>
dock_pv.29

> <s_m_Source_Path>
/home/csk/Desktop/cluster/DUD-E-result/hdac8

> <s_m_Source_File>
dock_pv.maegz

> <i_m_Source_File_Index>
29

> <chembl_id>
CHEMBL2333345

> <chembl_pref_name>
None

> <i_lp_mmshare_version>
53161

> <i_f3d_flags>
0

> <r_lp_tautomer_probability>
1

> <s_lp_Force_Field>
OPLS_2005

> <r_lp_Energy>
15.461253

> <b_lp_Chiralities_Consistent>
1

> <s_lp_Variant>
CHEMBL3192_lig485-1

> <s_i_glide_gridfile>
glide-grid_3f07

> <i_i_glide_lignum>
506

> <i_i_glide_rotatable_bonds>
3

> <r_i_docking_score>
-8.38762121158755

> <r_i_glide_ligand_efficiency>
-0.838762121158755

> <r_i_glide_ligand_efficiency_sa>
-1.80705820912218

> <r_i_glide_ligand_efficiency_ln>
-2.53971388333965

> <r_i_glide_gscore>
-8.38762121158755

> <r_i_glide_lipo>
-0.933652779336464

> <r_i_glide_hbond>
-0.304

> <r_i_glide_metal>
-2.3

> <r_i_glide_rewards>
-2.50821636577353

> <r_i_glide_evdw>
-2.70558142662048

> <r_i_glide_ecoul>
-18.067289352417

> <r_i_glide_erotb>
0.703620407716019

> <r_i_glide_esite>
-0.2

> <r_i_glide_emodel>
-34.8074489978061

> <r_i_glide_energy>
-20.7728707790375

> <r_i_glide_einternal>
3.56185984611511

> <i_i_glide_confnum>
1

> <i_i_glide_posenum>
209

> <r_i_glide_eff_state_penalty>
0

> <s_user_duplicate_titles>
CHEMBL3192_lig485

> <s_m_subgroup_title>
dock_pv

> <s_m_subgroupid>
dock_pv

> <b_m_subgroup_collapsed>
1

$$$$
CHEMBL3192_lig841
                    3D
 Schrodinger Suite 2021-1.
 42 43  0  0  1  0            999 V2000
  -31.0131   24.5125  -37.8952 O   0  0  0  0  0  0
  -30.1518   25.5560  -37.5184 N   0  0  0  0  0  0
  -29.8139   26.4692  -38.4464 C   0  0  0  0  0  0
  -30.2957   26.4696  -39.5789 O   0  0  0  0  0  0
  -28.8528   27.5786  -37.9851 C   0  0  0  0  0  0
  -28.2801   28.6110  -38.9746 C   0  0  0  0  0  0
  -26.9740   29.0609  -38.7568 C   0  0  0  0  0  0
  -26.4295   30.0915  -39.5168 C   0  0  0  0  0  0
  -27.1946   30.6933  -40.5120 C   0  0  0  0  0  0
  -26.6057   31.8064  -41.3675 C   0  0  0  0  0  0
  -26.4140   31.3936  -42.8377 C   0  0  0  0  0  0
  -25.4647   30.1912  -43.0073 C   0  0  0  0  0  0
  -25.3696   29.6704  -44.4506 C   0  0  0  0  0  0
  -24.7679   30.6792  -45.4207 C   0  0  0  0  0  0
  -25.5629   31.2639  -46.4123 C   0  0  0  0  0  0
  -25.0057   32.1680  -47.3192 C   0  0  0  0  0  0
  -25.7821   32.7156  -48.2831 F   0  0  0  0  0  0
  -23.6513   32.4945  -47.2340 C   0  0  0  0  0  0
  -23.1052   33.3663  -48.1110 F   0  0  0  0  0  0
  -22.8563   31.9195  -46.2422 C   0  0  0  0  0  0
  -23.4116   31.0185  -45.3350 C   0  0  0  0  0  0
  -22.6288   30.4690  -44.3808 F   0  0  0  0  0  0
  -28.4939   30.2496  -40.7472 C   0  0  0  0  0  0
  -29.0308   29.2225  -39.9808 C   0  0  0  0  0  0
  -30.4353   23.7311  -37.9184 H   0  0  0  0  0  0
  -29.8142   25.4760  -36.5689 H   0  0  0  0  0  0
  -29.3552   28.1195  -37.1811 H   0  0  0  0  0  0
  -27.9885   27.0638  -37.5813 H   0  0  0  0  0  0
  -26.3664   28.6244  -37.9814 H   0  0  0  0  0  0
  -25.4154   30.4204  -39.3240 H   0  0  0  0  0  0
  -27.2625   32.6737  -41.3078 H   0  0  0  0  0  0
  -25.6526   32.1372  -40.9496 H   0  0  0  0  0  0
  -27.3812   31.1646  -43.2807 H   0  0  0  0  0  0
  -26.0286   32.2467  -43.3981 H   0  0  0  0  0  0
  -24.4749   30.4640  -42.6365 H   0  0  0  0  0  0
  -25.8032   29.3666  -42.3790 H   0  0  0  0  0  0
  -24.7642   28.7621  -44.4772 H   0  0  0  0  0  0
  -26.3620   29.3629  -44.7851 H   0  0  0  0  0  0
  -26.6112   31.0169  -46.4922 H   0  0  0  0  0  0
  -21.8076   32.1695  -46.1746 H   0  0  0  0  0  0
  -29.0839   30.6939  -41.5313 H   0  0  0  0  0  0
  -30.0431   28.9225  -40.1890 H   0  0  0  0  0  0
  1  2  1  0  0  0
  1 25  1  0  0  0
  2  3  1  0  0  0
  2 26  1  0  0  0
  3  4  2  0  0  0
  3  5  1  0  0  0
  5  6  1  0  0  0
  5 27  1  0  0  0
  5 28  1  0  0  0
  6  7  2  0  0  0
  6 24  1  0  0  0
  7  8  1  0  0  0
  7 29  1  0  0  0
  8  9  2  0  0  0
  8 30  1  0  0  0
  9 10  1  0  0  0
  9 23  1  0  0  0
 10 11  1  0  0  0
 10 31  1  0  0  0
 10 32  1  0  0  0
 11 12  1  0  0  0
 11 33  1  0  0  0
 11 34  1  0  0  0
 12 13  1  0  0  0
 12 35  1  0  0  0
 12 36  1  0  0  0
 13 14  1  0  0  0
 13 37  1  0  0  0
 13 38  1  0  0  0
 14 15  2  0  0  0
 14 21  1  0  0  0
 15 16  1  0  0  0
 15 39  1  0  0  0
 16 17  1  0  0  0
 16 18  2  0  0  0
 18 19  1  0  0  0
 18 20  1  0  0  0
 20 21  2  0  0  0
 20 40  1  0  0  0
 21 22  1  0  0  0
 23 24  2  0  0  0
 23 41  1  0  0  0
 24 42  1  0  0  0
M  END
> <s_m_entry_id>
52811

> <s_m_entry_name>
dock_pv.30

> <s_m_Source_Path>
/home/csk/Desktop/cluster/DUD-E-result/hdac8

> <s_m_Source_File>
dock_pv.maegz

> <i_m_Source_File_Index>
30

> <chembl_id>
CHEMBL3698520

> <chembl_pref_name>
None

> <i_lp_mmshare_version>
53161

> <i_f3d_flags>
0

> <r_lp_tautomer_probability>
1

> <s_lp_Force_Field>
OPLS_2005

> <r_lp_Energy>
17.183423

> <b_lp_Chiralities_Consistent>
1

> <s_lp_Variant>
CHEMBL3192_lig841-1

> <s_i_glide_gridfile>
glide-grid_3f07

> <i_i_glide_lignum>
897

> <i_i_glide_rotatable_bonds>
9

> <r_i_docking_score>
-8.36841084830058

> <r_i_glide_ligand_efficiency>
-0.348683785345857

> <r_i_glide_ligand_efficiency_sa>
-1.00577807811097

> <r_i_glide_ligand_efficiency_ln>
-2.00294471735029

> <r_i_glide_gscore>
-8.36841084830058

> <r_i_glide_lipo>
-1.72785352018747

> <r_i_glide_hbond>
-0.304

> <r_i_glide_metal>
-2.3

> <r_i_glide_rewards>
-1.45051919918006

> <r_i_glide_evdw>
-25.5818977355957

> <r_i_glide_ecoul>
-15.2887802124023

> <r_i_glide_erotb>
1.16248051662976

> <r_i_glide_esite>
-0.176106726922671

> <r_i_glide_emodel>
-63.3244909800273

> <r_i_glide_energy>
-40.870677947998

> <r_i_glide_einternal>
2.53692269325256

> <i_i_glide_confnum>
56

> <i_i_glide_posenum>
218

> <r_i_glide_eff_state_penalty>
0

> <s_user_duplicate_titles>
CHEMBL3192_lig841

> <s_m_subgroup_title>
dock_pv

> <s_m_subgroupid>
dock_pv

> <b_m_subgroup_collapsed>
1

$$$$
CHEMBL3192_lig828
                    3D
 Schrodinger Suite 2021-1.
 50 52  0  0  1  0            999 V2000
  -26.6131   33.9267  -39.9810 O   0  0  0  0  0  0
  -25.8112   34.4822  -40.9976 C   0  0  0  0  0  0
  -24.3128   34.1337  -40.8318 C   0  0  0  0  0  0
  -23.8157   32.6617  -40.9688 C   0  0  0  0  0  0
  -24.8369   31.6609  -41.2977 N   0  0  0  0  0  0
  -25.1906   31.1697  -42.5517 C   0  0  0  0  0  0
  -26.1307   30.2526  -42.4858 N   0  0  0  0  0  0
  -26.4079   30.1144  -41.1545 C   0  0  0  0  0  0
  -27.3344   29.2689  -40.5275 C   0  0  0  0  0  0
  -27.4505   29.2852  -39.1340 C   0  0  0  0  0  0
  -28.4325   28.4205  -38.4335 C   0  0  0  0  0  0
  -28.7944   27.1655  -38.7907 C   0  0  0  0  0  0
  -29.8131   26.3739  -38.1274 C   0  0  0  0  0  0
  -30.5849   25.6656  -38.7814 O   0  0  0  0  0  0
  -29.8479   26.4690  -36.7890 N   0  0  0  0  0  0
  -30.8055   25.7224  -36.0874 O   0  0  0  0  0  0
  -26.6335   30.1456  -38.3943 C   0  0  0  0  0  0
  -25.6924   30.9945  -38.9803 C   0  0  0  0  0  0
  -25.6043   30.9716  -40.3754 C   0  0  0  0  0  0
  -24.5200   31.6076  -43.8664 C   0  0  0  0  0  0
  -24.8551   30.7318  -45.1102 C   0  0  0  0  0  0
  -26.2765   30.9750  -45.6776 C   0  0  0  0  0  0
  -26.6030   32.4661  -45.8960 C   0  0  0  0  0  0
  -26.2394   33.3331  -44.6785 C   0  0  0  0  0  0
  -24.7801   33.0878  -44.2454 C   0  0  0  0  0  0
  -26.1484   34.0690  -39.1351 H   0  0  0  0  0  0
  -25.9492   35.5633  -41.0225 H   0  0  0  0  0  0
  -26.1956   34.0892  -41.9350 H   0  0  0  0  0  0
  -23.9621   34.5331  -39.8804 H   0  0  0  0  0  0
  -23.7636   34.7326  -41.5581 H   0  0  0  0  0  0
  -23.3340   32.3543  -40.0381 H   0  0  0  0  0  0
  -23.0182   32.6017  -41.7100 H   0  0  0  0  0  0
  -27.9541   28.6241  -41.1177 H   0  0  0  0  0  0
  -28.9166   28.8682  -37.5807 H   0  0  0  0  0  0
  -28.3220   26.6821  -39.6292 H   0  0  0  0  0  0
  -29.2219   27.0060  -36.1883 H   0  0  0  0  0  0
  -30.2897   25.0334  -35.6585 H   0  0  0  0  0  0
  -26.7449   30.1855  -37.3247 H   0  0  0  0  0  0
  -25.0860   31.6606  -38.3810 H   0  0  0  0  0  0
  -23.4395   31.5148  -43.7496 H   0  0  0  0  0  0
  -24.2013   31.0611  -45.9202 H   0  0  0  0  0  0
  -24.6116   29.6794  -44.9569 H   0  0  0  0  0  0
  -26.3877   30.4687  -46.6335 H   0  0  0  0  0  0
  -27.0147   30.5329  -45.0087 H   0  0  0  0  0  0
  -26.0561   32.8283  -46.7681 H   0  0  0  0  0  0
  -27.6608   32.5827  -46.1356 H   0  0  0  0  0  0
  -26.3900   34.3875  -44.9135 H   0  0  0  0  0  0
  -26.9181   33.1017  -43.8567 H   0  0  0  0  0  0
  -24.4153   33.7869  -43.4999 H   0  0  0  0  0  0
  -24.1819   33.3166  -45.1298 H   0  0  0  0  0  0
  1  2  1  0  0  0
  1 26  1  0  0  0
  2  3  1  0  0  0
  2 27  1  0  0  0
  2 28  1  0  0  0
  3  4  1  0  0  0
  3 29  1  0  0  0
  3 30  1  0  0  0
  4  5  1  0  0  0
  4 31  1  0  0  0
  4 32  1  0  0  0
  5  6  1  0  0  0
  5 19  1  0  0  0
  6  7  2  0  0  0
  6 20  1  0  0  0
  7  8  1  0  0  0
  8  9  2  0  0  0
  8 19  1  0  0  0
  9 10  1  0  0  0
  9 33  1  0  0  0
 10 11  1  0  0  0
 10 17  2  0  0  0
 11 12  2  0  0  0
 11 34  1  0  0  0
 12 13  1  0  0  0
 12 35  1  0  0  0
 13 14  2  0  0  0
 13 15  1  0  0  0
 15 16  1  0  0  0
 15 36  1  0  0  0
 16 37  1  0  0  0
 17 18  1  0  0  0
 17 38  1  0  0  0
 18 19  2  0  0  0
 18 39  1  0  0  0
 20 21  1  0  0  0
 20 25  1  0  0  0
 20 40  1  0  0  0
 21 22  1  0  0  0
 21 41  1  0  0  0
 21 42  1  0  0  0
 22 23  1  0  0  0
 22 43  1  0  0  0
 22 44  1  0  0  0
 23 24  1  0  0  0
 23 45  1  0  0  0
 23 46  1  0  0  0
 24 25  1  0  0  0
 24 47  1  0  0  0
 24 48  1  0  0  0
 25 49  1  0  0  0
 25 50  1  0  0  0
M  END
> <s_m_entry_id>
52812

> <s_m_entry_name>
dock_pv.31

> <s_m_Source_Path>
/home/csk/Desktop/cluster/DUD-E-result/hdac8

> <s_m_Source_File>
dock_pv.maegz

> <i_m_Source_File_Index>
31

> <chembl_id>
CHEMBL474350

> <chembl_pref_name>
None

> <i_lp_mmshare_version>
53161

> <i_f3d_flags>
0

> <r_lp_tautomer_probability>
1

> <s_lp_Force_Field>
OPLS_2005

> <r_lp_Energy>
24.989047

> <b_lp_Chiralities_Consistent>
1

> <s_lp_Variant>
CHEMBL3192_lig828-1

> <s_i_glide_gridfile>
glide-grid_3f07

> <i_i_glide_lignum>
883

> <i_i_glide_rotatable_bonds>
9

> <r_i_docking_score>
-8.36833567016241

> <r_i_glide_ligand_efficiency>
-0.334733426806497

> <r_i_glide_ligand_efficiency_sa>
-0.978766476504798

> <r_i_glide_ligand_efficiency_ln>
-1.98354633261192

> <r_i_glide_gscore>
-8.36833567016241

> <r_i_glide_lipo>
-1.33502323321124

> <r_i_glide_hbond>
-0.456

> <r_i_glide_metal>
-2.3

> <r_i_glide_rewards>
-1.26759022397395

> <r_i_glide_evdw>
-30.0095386505127

> <r_i_glide_ecoul>
-16.6473045349121

> <r_i_glide_erotb>
1.12621948905022

> <r_i_glide_esite>
-0.138369089264986

> <r_i_glide_emodel>
-72.6570556446322

> <r_i_glide_energy>
-46.6568431854248

> <r_i_glide_einternal>
8.16330528259277

> <i_i_glide_confnum>
22

> <i_i_glide_posenum>
147

> <r_i_glide_eff_state_penalty>
0

> <s_user_duplicate_titles>
CHEMBL3192_lig828

> <s_m_subgroup_title>
dock_pv

> <s_m_subgroupid>
dock_pv

> <b_m_subgroup_collapsed>
1

$$$$
CHEMBL3192_lig994
                    3D
 Schrodinger Suite 2021-1.
 31 32  0  0  1  0            999 V2000
  -23.3578   31.6690  -42.5931 C   0  0  0  0  0  0
  -23.8190   31.3219  -43.8717 C   0  0  0  0  0  0
  -25.0184   30.6065  -43.9876 C   0  0  0  0  0  0
  -25.7287   30.2320  -42.8517 C   0  0  0  0  0  0
  -25.2476   30.5513  -41.5787 C   0  0  0  0  0  0
  -24.0653   31.2853  -41.4560 C   0  0  0  0  0  0
  -25.9727   30.0690  -40.3669 C   0  0  0  0  0  0
  -27.1503   29.4146  -40.5286 O   0  0  0  0  0  0
  -27.4781   29.0638  -39.2620 C   0  0  0  0  0  0
  -26.6130   29.4944  -38.3810 N   0  0  0  0  0  0
  -25.6127   30.1369  -39.1060 N   0  0  0  0  0  0
  -28.8710   28.5394  -39.0346 C   0  0  0  0  0  0
  -29.0137   27.5232  -37.9810 N   0  0  0  0  0  0
  -29.8130   26.4440  -38.0873 C   0  0  0  0  0  0
  -30.2546   25.7455  -36.7779 C   0  0  0  0  0  0
  -30.2479   26.0690  -39.1810 O   0  0  0  0  0  0
  -31.0130   24.5380  -37.0410 N   0  0  0  0  0  0
  -23.0516   31.7039  -45.0829 N   0  3  0  0  0  0
  -22.0867   32.4512  -44.9537 O   0  0  0  0  0  0
  -23.4130   31.2568  -46.1686 O   0  5  0  0  0  0
  -22.4395   32.2266  -42.4707 H   0  0  0  0  0  0
  -25.4050   30.3312  -44.9591 H   0  0  0  0  0  0
  -26.6410   29.6690  -42.9668 H   0  0  0  0  0  0
  -23.6819   31.5468  -40.4788 H   0  0  0  0  0  0
  -29.3218   28.2362  -39.9810 H   0  0  0  0  0  0
  -29.4188   29.4189  -38.7040 H   0  0  0  0  0  0
  -28.6524   27.7568  -37.0551 H   0  0  0  0  0  0
  -30.8754   26.4417  -36.2123 H   0  0  0  0  0  0
  -29.4130   25.5135  -36.1359 H   0  0  0  0  0  0
  -30.4085   23.8106  -37.4191 H   0  0  0  0  0  0
  -31.3915   24.1559  -36.1857 H   0  0  0  0  0  0
  1  2  2  0  0  0
  1  6  1  0  0  0
  1 21  1  0  0  0
  2  3  1  0  0  0
  2 18  1  0  0  0
  3  4  2  0  0  0
  3 22  1  0  0  0
  4  5  1  0  0  0
  4 23  1  0  0  0
  5  6  2  0  0  0
  5  7  1  0  0  0
  6 24  1  0  0  0
  7  8  1  0  0  0
  7 11  2  0  0  0
  8  9  1  0  0  0
  9 10  2  0  0  0
  9 12  1  0  0  0
 10 11  1  0  0  0
 12 13  1  0  0  0
 12 25  1  0  0  0
 12 26  1  0  0  0
 13 14  1  0  0  0
 13 27  1  0  0  0
 14 15  1  0  0  0
 14 16  2  0  0  0
 15 17  1  0  0  0
 15 28  1  0  0  0
 15 29  1  0  0  0
 17 30  1  0  0  0
 17 31  1  0  0  0
 18 19  2  0  0  0
 18 20  1  0  0  0
M  CHG  2  18   1  20  -1
M  END
> <s_m_entry_id>
52813

> <s_m_entry_name>
dock_pv.32

> <s_m_Source_Path>
/home/csk/Desktop/cluster/DUD-E-result/hdac8

> <s_m_Source_File>
dock_pv.maegz

> <i_m_Source_File_Index>
32

> <chembl_id>
CHEMBL3956223

> <chembl_pref_name>
None

> <i_lp_mmshare_version>
53161

> <i_f3d_flags>
0

> <r_lp_tautomer_probability>
1

> <s_lp_Force_Field>
OPLS_2005

> <r_lp_Energy>
5.324209

> <b_lp_Chiralities_Consistent>
1

> <s_lp_Variant>
CHEMBL3192_lig994-1

> <s_i_glide_gridfile>
glide-grid_3f07

> <i_i_glide_lignum>
1056

> <i_i_glide_rotatable_bonds>
6

> <r_i_docking_score>
-8.36596863402302

> <r_i_glide_ligand_efficiency>
-0.418298431701151

> <r_i_glide_ligand_efficiency_sa>
-1.1354366308698

> <r_i_glide_ligand_efficiency_ln>
-2.09372602098337

> <r_i_glide_gscore>
-8.36596863402302

> <r_i_glide_lipo>
-1.00879637572041

> <r_i_glide_hbond>
-0.732758927906905

> <r_i_glide_metal>
-2.3

> <r_i_glide_rewards>
-1.56003236711277

> <r_i_glide_evdw>
-29.3265571594238

> <r_i_glide_ecoul>
-13.5206441879272

> <r_i_glide_erotb>
0.937050377273946

> <r_i_glide_esite>
-0.207006854396603

> <r_i_glide_emodel>
-63.0317392528729

> <r_i_glide_energy>
-42.8472013473511

> <r_i_glide_einternal>
8.03080177307129

> <i_i_glide_confnum>
1

> <i_i_glide_posenum>
107

> <r_i_glide_eff_state_penalty>
0

> <s_user_duplicate_titles>
CHEMBL3192_lig994

> <s_m_subgroup_title>
dock_pv

> <s_m_subgroupid>
dock_pv

> <b_m_subgroup_collapsed>
1

$$$$
CHEMBL3192_lig454
                    3D
 Schrodinger Suite 2021-1.
 35 36  0  0  1  0            999 V2000
  -26.7661   33.7100  -41.3570 S   0  0  0  0  0  0
  -26.4406   32.6669  -39.9808 N   0  0  0  0  0  0
  -28.2129   33.6690  -41.5851 O   0  0  0  0  0  0
  -26.0972   34.9825  -41.0694 O   0  0  0  0  0  0
  -25.8964   32.9341  -42.7230 C   0  0  0  0  0  0
  -29.4505   26.8406  -38.6726 C   0  0  0  0  0  0
  -30.2130   26.4760  -39.5782 O   0  0  0  0  0  0
  -26.9197   31.3602  -39.7877 C   0  0  0  0  0  0
  -29.8127   26.8687  -37.3766 N   0  0  0  0  0  0
  -28.0103   27.2425  -39.0071 C   0  0  0  0  0  0
  -27.7263   28.7288  -39.2356 C   0  0  0  0  0  0
  -26.1908   30.5710  -38.9044 C   0  0  0  0  0  0
  -28.0767   30.8346  -40.3807 C   0  0  0  0  0  0
  -26.5903   29.2694  -38.6390 C   0  0  0  0  0  0
  -28.4772   29.5240  -40.1077 C   0  0  0  0  0  0
  -31.0671   26.3529  -37.0122 O   0  0  0  0  0  0
  -24.6306   33.3996  -43.0911 C   0  0  0  0  0  0
  -26.4516   31.8305  -43.3742 C   0  0  0  0  0  0
  -25.7526   31.2008  -44.4007 C   0  0  0  0  0  0
  -23.9314   32.7700  -44.1181 C   0  0  0  0  0  0
  -24.4951   31.6738  -44.7691 C   0  0  0  0  0  0
  -25.6745   32.9721  -39.3900 H   0  0  0  0  0  0
  -29.2433   27.1576  -36.5829 H   0  0  0  0  0  0
  -27.3883   26.8711  -38.1967 H   0  0  0  0  0  0
  -27.6758   26.6951  -39.8884 H   0  0  0  0  0  0
  -25.3020   30.9616  -38.4274 H   0  0  0  0  0  0
  -28.6749   31.4150  -41.0611 H   0  0  0  0  0  0
  -25.9828   28.6698  -37.9811 H   0  0  0  0  0  0
  -29.3535   29.1257  -40.5962 H   0  0  0  0  0  0
  -30.8536   25.5425  -36.5385 H   0  0  0  0  0  0
  -24.1835   34.2416  -42.5806 H   0  0  0  0  0  0
  -27.4128   31.4475  -43.0787 H   0  0  0  0  0  0
  -26.1812   30.3474  -44.9061 H   0  0  0  0  0  0
  -22.9534   33.1279  -44.4044 H   0  0  0  0  0  0
  -23.9503   31.1862  -45.5642 H   0  0  0  0  0  0
  1  2  1  0  0  0
  1  3  2  0  0  0
  1  4  2  0  0  0
  1  5  1  0  0  0
  2  8  1  0  0  0
  2 22  1  0  0  0
  5 17  2  0  0  0
  5 18  1  0  0  0
  6 10  1  0  0  0
  6  7  2  0  0  0
  6  9  1  0  0  0
  8 12  2  0  0  0
  8 13  1  0  0  0
  9 16  1  0  0  0
  9 23  1  0  0  0
 10 11  1  0  0  0
 10 24  1  0  0  0
 10 25  1  0  0  0
 11 15  1  0  0  0
 11 14  2  0  0  0
 12 14  1  0  0  0
 12 26  1  0  0  0
 13 15  2  0  0  0
 13 27  1  0  0  0
 14 28  1  0  0  0
 15 29  1  0  0  0
 16 30  1  0  0  0
 17 20  1  0  0  0
 17 31  1  0  0  0
 18 19  2  0  0  0
 18 32  1  0  0  0
 19 21  1  0  0  0
 19 33  1  0  0  0
 20 21  2  0  0  0
 20 34  1  0  0  0
 21 35  1  0  0  0
M  END
> <s_m_entry_id>
52814

> <s_m_entry_name>
dock_pv.33

> <s_m_Source_Path>
/home/csk/Desktop/cluster/DUD-E-result/hdac8

> <s_m_Source_File>
dock_pv.maegz

> <i_m_Source_File_Index>
33

> <chembl_id>
CHEMBL319248

> <chembl_pref_name>
None

> <i_lp_mmshare_version>
53161

> <i_f3d_flags>
0

> <r_lp_tautomer_probability>
1

> <s_lp_Force_Field>
OPLS_2005

> <r_lp_Energy>
13.764443

> <b_lp_Chiralities_Consistent>
1

> <s_lp_Variant>
CHEMBL3192_lig454-1

> <s_i_glide_gridfile>
glide-grid_3f07

> <i_i_glide_lignum>
473

> <i_i_glide_rotatable_bonds>
7

> <r_i_docking_score>
-8.35813978790052

> <r_i_glide_ligand_efficiency>
-0.398006656566691

> <r_i_glide_ligand_efficiency_sa>
-1.0980701860481

> <r_i_glide_ligand_efficiency_ln>
-2.0665331733467

> <r_i_glide_gscore>
-8.35813978790052

> <r_i_glide_lipo>
-1.18883007461144

> <r_i_glide_hbond>
-0.695940907486145

> <r_i_glide_metal>
-2.3

> <r_i_glide_rewards>
-1.45099339604227

> <r_i_glide_evdw>
-20.9925880432129

> <r_i_glide_ecoul>
-16.5598964691162

> <r_i_glide_erotb>
1.18094350758822

> <r_i_glide_esite>
-0.369705044820808

> <r_i_glide_emodel>
-60.3921772503883

> <r_i_glide_energy>
-37.5524845123291

> <r_i_glide_einternal>
5.16031789779663

> <i_i_glide_confnum>
22

> <i_i_glide_posenum>
257

> <r_i_glide_eff_state_penalty>
0

> <s_user_duplicate_titles>
CHEMBL3192_lig454

> <s_m_subgroup_title>
dock_pv

> <s_m_subgroupid>
dock_pv

> <b_m_subgroup_collapsed>
1

$$$$
CHEMBL3192_lig716
                    3D
 Schrodinger Suite 2021-1.
 44 46  0  0  1  0            999 V2000
  -26.6130   32.8226  -39.9810 N   0  0  2  0  0  0
  -30.2130   26.5122  -39.5810 O   0  0  0  0  0  0
  -26.7526   33.8961  -42.2117 C   0  0  0  0  0  0
  -27.3637   28.4199  -38.4102 C   0  0  0  0  0  0
  -26.5625   29.5035  -38.7810 C   0  0  0  0  0  0
  -29.0130   29.1066  -40.0103 C   0  0  0  0  0  0
  -29.4227   26.9587  -38.7433 C   0  0  0  0  0  0
  -26.0750   31.4977  -40.2839 C   0  0  0  0  0  0
  -27.3764   33.2164  -45.5921 C   0  0  0  0  0  0
  -26.4180   33.2706  -43.3075 N   0  0  0  0  0  0
  -28.5846   28.1857  -39.0462 C   0  0  0  0  0  0
  -27.8793   34.6384  -42.3320 O   0  0  0  0  0  0
  -27.3498   33.6690  -44.1576 C   0  0  0  0  0  0
  -28.2260   30.1906  -40.3808 C   0  0  0  0  0  0
  -28.2559   34.4914  -43.6642 N   0  0  0  0  0  0
  -26.9840   30.3820  -39.7817 C   0  0  0  0  0  0
  -29.4130   26.4704  -37.4991 N   0  0  0  0  0  0
  -26.0669   33.8538  -40.8597 C   0  0  0  0  0  0
  -28.2174   33.8412  -46.5220 C   0  0  0  0  0  0
  -28.2129   33.4465  -47.8563 C   0  0  0  0  0  0
  -27.3784   32.4187  -48.2890 C   0  0  0  0  0  0
  -26.5531   31.7707  -47.3588 C   0  0  0  0  0  0
  -26.5524   32.1696  -46.0248 C   0  0  0  0  0  0
  -30.2130   25.3437  -37.2146 O   0  0  0  0  0  0
  -27.4273   32.1114  -49.6344 O   0  0  0  0  0  0
  -26.7080   30.9840  -50.1166 C   0  0  0  0  0  0
  -26.2712   33.0808  -39.0528 H   0  0  0  0  0  0
  -27.0130   27.7338  -37.6546 H   0  0  0  0  0  0
  -25.5964   29.6365  -38.3164 H   0  0  0  0  0  0
  -29.9565   28.9751  -40.5184 H   0  0  0  0  0  0
  -25.0888   31.4065  -39.8246 H   0  0  0  0  0  0
  -25.9306   31.3544  -41.3562 H   0  0  0  0  0  0
  -28.5631   30.8625  -41.1573 H   0  0  0  0  0  0
  -28.8810   26.8066  -36.7007 H   0  0  0  0  0  0
  -26.2052   34.8166  -40.3653 H   0  0  0  0  0  0
  -24.9865   33.7369  -40.9648 H   0  0  0  0  0  0
  -28.8718   34.6470  -46.2224 H   0  0  0  0  0  0
  -28.8635   33.9414  -48.5626 H   0  0  0  0  0  0
  -25.8972   30.9673  -47.6547 H   0  0  0  0  0  0
  -25.8984   31.6633  -45.3296 H   0  0  0  0  0  0
  -29.5843   24.6126  -37.1810 H   0  0  0  0  0  0
  -26.9164   30.8537  -51.1785 H   0  0  0  0  0  0
  -25.6315   31.1189  -50.0030 H   0  0  0  0  0  0
  -27.0129   30.0688  -49.6064 H   0  0  0  0  0  0
  1 18  1  0  0  0
  1  8  1  0  0  0
  1 27  1  0  0  0
  2  7  2  0  0  0
  3 12  1  0  0  0
  3 10  2  0  0  0
  3 18  1  0  0  0
  4  5  1  0  0  0
  4 11  2  0  0  0
  4 28  1  0  0  0
  5 16  2  0  0  0
  5 29  1  0  0  0
  6 14  2  0  0  0
  6 11  1  0  0  0
  6 30  1  0  0  0
  7 11  1  0  0  0
  7 17  1  0  0  0
  8 16  1  0  0  0
  8 31  1  0  0  0
  8 32  1  0  0  0
  9 13  1  0  0  0
  9 19  1  0  0  0
  9 23  2  0  0  0
 10 13  1  0  0  0
 12 15  1  0  0  0
 13 15  2  0  0  0
 14 16  1  0  0  0
 14 33  1  0  0  0
 17 24  1  0  0  0
 17 34  1  0  0  0
 18 35  1  0  0  0
 18 36  1  0  0  0
 19 20  2  0  0  0
 19 37  1  0  0  0
 20 21  1  0  0  0
 20 38  1  0  0  0
 21 22  2  0  0  0
 21 25  1  0  0  0
 22 23  1  0  0  0
 22 39  1  0  0  0
 23 40  1  0  0  0
 24 41  1  0  0  0
 25 26  1  0  0  0
 26 42  1  0  0  0
 26 43  1  0  0  0
 26 44  1  0  0  0
M  END
> <s_m_entry_id>
52815

> <s_m_entry_name>
dock_pv.34

> <s_m_Source_Path>
/home/csk/Desktop/cluster/DUD-E-result/hdac8

> <s_m_Source_File>
dock_pv.maegz

> <i_m_Source_File_Index>
34

> <chembl_id>
CHEMBL3421749

> <chembl_pref_name>
None

> <i_lp_mmshare_version>
53161

> <i_f3d_flags>
0

> <r_lp_tautomer_probability>
1

> <s_lp_Force_Field>
OPLS_2005

> <r_lp_Energy>
32.127021

> <b_lp_Chiralities_Consistent>
1

> <s_lp_Variant>
CHEMBL3192_lig716-1

> <s_i_glide_gridfile>
glide-grid_3f07

> <i_i_glide_lignum>
760

> <i_i_glide_rotatable_bonds>
9

> <r_i_docking_score>
-8.35796310775867

> <r_i_glide_ligand_efficiency>
-0.32146011952918

> <r_i_glide_ligand_efficiency_sa>
-0.952324339220704

> <r_i_glide_ligand_efficiency_ln>
-1.96284021114331

> <r_i_glide_gscore>
-8.35796310775867

> <r_i_glide_lipo>
-1.34106731477287

> <r_i_glide_hbond>
-0.699714567092484

> <r_i_glide_metal>
-2.3

> <r_i_glide_rewards>
-1.25821481333189

> <r_i_glide_evdw>
-23.7982578277588

> <r_i_glide_ecoul>
-15.9962596893311

> <r_i_glide_erotb>
1.06517144402655

> <r_i_glide_esite>
-0.234786011800384

> <r_i_glide_emodel>
-63.5514314874529

> <r_i_glide_energy>
-39.7945175170898

> <r_i_glide_einternal>
3.38303685188293

> <i_i_glide_confnum>
28

> <i_i_glide_posenum>
293

> <r_i_glide_eff_state_penalty>
0

> <s_user_duplicate_titles>
CHEMBL3192_lig716

> <s_m_subgroup_title>
dock_pv

> <s_m_subgroupid>
dock_pv

> <b_m_subgroup_collapsed>
1

$$$$
CHEMBL3192_lig1003
                    3D
 Schrodinger Suite 2021-1.
 39 41  0  0  1  0            999 V2000
  -28.2130   33.4867  -41.4399 O   0  0  0  0  0  0
  -26.7881   33.1578  -41.3065 S   0  0  0  0  0  0
  -25.8464   34.1511  -40.7810 O   0  0  0  0  0  0
  -29.8130   26.5343  -38.6391 C   0  0  0  0  0  0
  -28.7307   27.4937  -38.6071 C   0  0  0  0  0  0
  -28.6223   28.5244  -39.4847 C   0  0  0  0  0  0
  -30.6126   26.4690  -39.5810 O   0  0  0  0  0  0
  -29.9067   25.7602  -37.5489 N   0  0  0  0  0  0
  -27.5432   29.5430  -39.5153 C   0  0  0  0  0  0
  -27.6776   30.7099  -40.2875 C   0  0  0  0  0  0
  -26.6642   31.6812  -40.2980 C   0  0  0  0  0  0
  -25.5056   31.4840  -39.5477 C   0  0  0  0  0  0
  -25.3614   30.3352  -38.7810 C   0  0  0  0  0  0
  -26.3704   29.3756  -38.7709 C   0  0  0  0  0  0
  -27.0130   32.6036  -43.9307 N   0  0  0  0  0  0
  -26.1377   32.6358  -42.8946 C   0  0  0  0  0  0
  -24.7950   32.2754  -43.0090 C   0  0  0  0  0  0
  -24.3169   31.8413  -44.2427 C   0  0  0  0  0  0
  -25.2008   31.7815  -45.3481 C   0  0  0  0  0  0
  -24.7887   31.3486  -46.6319 C   0  0  0  0  0  0
  -25.7024   31.3137  -47.6835 C   0  0  0  0  0  0
  -27.0239   31.7028  -47.4875 C   0  0  0  0  0  0
  -27.4584   32.1377  -46.2372 C   0  0  0  0  0  0
  -26.5585   32.1814  -45.1452 C   0  0  0  0  0  0
  -30.9250   24.7940  -37.5027 O   0  0  0  0  0  0
  -28.0043   27.3502  -37.8212 H   0  0  0  0  0  0
  -29.3735   28.6419  -40.2541 H   0  0  0  0  0  0
  -29.3140   25.7608  -36.7298 H   0  0  0  0  0  0
  -28.5655   30.8664  -40.8838 H   0  0  0  0  0  0
  -24.7178   32.2264  -39.5439 H   0  0  0  0  0  0
  -24.4624   30.1858  -38.2003 H   0  0  0  0  0  0
  -26.2162   28.4914  -38.1733 H   0  0  0  0  0  0
  -24.1347   32.3291  -42.1546 H   0  0  0  0  0  0
  -23.2818   31.5551  -44.3633 H   0  0  0  0  0  0
  -23.7622   31.0497  -46.7896 H   0  0  0  0  0  0
  -25.3829   30.9855  -48.6617 H   0  0  0  0  0  0
  -27.7212   31.6693  -48.3134 H   0  0  0  0  0  0
  -28.4855   32.4430  -46.0936 H   0  0  0  0  0  0
  -30.4509   23.9542  -37.5810 H   0  0  0  0  0  0
  1  2  2  0  0  0
  2  3  2  0  0  0
  2 16  1  0  0  0
  2 11  1  0  0  0
  4  5  1  0  0  0
  4  7  2  0  0  0
  4  8  1  0  0  0
  5  6  2  0  0  0
  5 26  1  0  0  0
  6  9  1  0  0  0
  6 27  1  0  0  0
  8 25  1  0  0  0
  8 28  1  0  0  0
  9 10  1  0  0  0
  9 14  2  0  0  0
 10 11  2  0  0  0
 10 29  1  0  0  0
 11 12  1  0  0  0
 12 13  2  0  0  0
 12 30  1  0  0  0
 13 14  1  0  0  0
 13 31  1  0  0  0
 14 32  1  0  0  0
 15 16  2  0  0  0
 15 24  1  0  0  0
 16 17  1  0  0  0
 17 18  2  0  0  0
 17 33  1  0  0  0
 18 19  1  0  0  0
 18 34  1  0  0  0
 19 20  2  0  0  0
 19 24  1  0  0  0
 20 21  1  0  0  0
 20 35  1  0  0  0
 21 22  2  0  0  0
 21 36  1  0  0  0
 22 23  1  0  0  0
 22 37  1  0  0  0
 23 24  2  0  0  0
 23 38  1  0  0  0
 25 39  1  0  0  0
M  END
> <s_m_entry_id>
52816

> <s_m_entry_name>
dock_pv.35

> <s_m_Source_Path>
/home/csk/Desktop/cluster/DUD-E-result/hdac8

> <s_m_Source_File>
dock_pv.maegz

> <i_m_Source_File_Index>
35

> <chembl_id>
CHEMBL3973951

> <chembl_pref_name>
None

> <i_lp_mmshare_version>
53161

> <i_f3d_flags>
0

> <r_lp_tautomer_probability>
1

> <s_lp_Force_Field>
OPLS_2005

> <r_lp_Energy>
23.0276

> <b_lp_Chiralities_Consistent>
1

> <s_lp_Variant>
CHEMBL3192_lig1003-1

> <s_i_glide_gridfile>
glide-grid_3f07

> <i_i_glide_lignum>
1065

> <i_i_glide_rotatable_bonds>
6

> <r_i_docking_score>
-8.35006313400357

> <r_i_glide_ligand_efficiency>
-0.334002525360143

> <r_i_glide_ligand_efficiency_sa>
-0.976629307713067

> <r_i_glide_ligand_efficiency_ln>
-1.97921519395855

> <r_i_glide_gscore>
-8.35006313400357

> <r_i_glide_lipo>
-1.24179323679901

> <r_i_glide_hbond>
-0.305473661128463

> <r_i_glide_metal>
-2.3

> <r_i_glide_rewards>
-1.2300116136172

> <r_i_glide_evdw>
-26.7560691833496

> <r_i_glide_ecoul>
-15.9203453063965

> <r_i_glide_erotb>
0.760757109921005

> <r_i_glide_esite>
-0.307686477252945

> <r_i_glide_emodel>
-69.8593677111058

> <r_i_glide_energy>
-42.6764144897461

> <r_i_glide_einternal>
2.14694666862488

> <i_i_glide_confnum>
51

> <i_i_glide_posenum>
333

> <r_i_glide_eff_state_penalty>
0

> <s_user_duplicate_titles>
CHEMBL3192_lig1003

> <s_m_subgroup_title>
dock_pv

> <s_m_subgroupid>
dock_pv

> <b_m_subgroup_collapsed>
1

$$$$
CHEMBL3192_lig613
                    3D
 Schrodinger Suite 2021-1.
 37 39  0  0  1  0            999 V2000
  -29.7083   26.5492  -38.6322 C   0  0  0  0  0  0
  -28.5848   27.4595  -38.6193 C   0  0  0  0  0  0
  -28.4034   28.3820  -39.5878 C   0  0  0  0  0  0
  -30.5057   26.4803  -39.5805 O   0  0  0  0  0  0
  -29.8133   25.8017  -37.5273 N   0  0  0  0  0  0
  -30.8516   24.8622  -37.4664 O   0  0  0  0  0  0
  -27.2827   29.3291  -39.7021 C   0  0  0  0  0  0
  -26.8505   29.6728  -40.9863 C   0  0  0  0  0  0
  -25.7564   30.5169  -41.1746 C   0  0  0  0  0  0
  -25.1034   31.0616  -40.0662 C   0  0  0  0  0  0
  -25.5391   30.7386  -38.7810 C   0  0  0  0  0  0
  -26.6150   29.8669  -38.5951 C   0  0  0  0  0  0
  -25.2022   30.8675  -42.8409 S   0  0  0  0  0  0
  -23.8276   31.3763  -42.7822 O   0  0  0  0  0  0
  -26.7431   32.3650  -44.6267 C   0  0  0  0  0  0
  -27.3839   33.6414  -44.6236 C   0  0  0  0  0  0
  -28.0779   34.0250  -45.7831 C   0  0  0  0  0  0
  -28.0898   33.1402  -46.8627 C   0  0  0  0  0  0
  -27.4135   31.9232  -46.7609 C   0  0  0  0  0  0
  -26.7331   31.5106  -45.6603 N   0  0  0  0  0  0
  -26.1686   32.1823  -43.3764 N   0  0  0  0  0  0
  -27.1202   34.2351  -43.3485 C   0  0  0  0  0  0
  -26.3511   33.3345  -42.6405 C   0  0  0  0  0  0
  -25.5611   29.7123  -43.6747 O   0  0  0  0  0  0
  -27.8798   27.3649  -37.8049 H   0  0  0  0  0  0
  -29.1364   28.4686  -40.3808 H   0  0  0  0  0  0
  -29.2134   25.7990  -36.7137 H   0  0  0  0  0  0
  -30.4024   24.0118  -37.5704 H   0  0  0  0  0  0
  -27.3520   29.2690  -41.8513 H   0  0  0  0  0  0
  -24.2596   31.7268  -40.1930 H   0  0  0  0  0  0
  -25.0331   31.1713  -37.9308 H   0  0  0  0  0  0
  -26.9333   29.6284  -37.5865 H   0  0  0  0  0  0
  -28.5850   34.9759  -45.8406 H   0  0  0  0  0  0
  -28.6211   33.3922  -47.7703 H   0  0  0  0  0  0
  -27.4235   31.2327  -47.5924 H   0  0  0  0  0  0
  -27.4245   35.2089  -42.9951 H   0  0  0  0  0  0
  -25.9195   33.4149  -41.6501 H   0  0  0  0  0  0
  1  2  1  0  0  0
  1  4  2  0  0  0
  1  5  1  0  0  0
  2  3  2  0  0  0
  2 25  1  0  0  0
  3  7  1  0  0  0
  3 26  1  0  0  0
  5  6  1  0  0  0
  5 27  1  0  0  0
  6 28  1  0  0  0
  7  8  1  0  0  0
  7 12  2  0  0  0
  8  9  2  0  0  0
  8 29  1  0  0  0
  9 10  1  0  0  0
  9 13  1  0  0  0
 10 11  2  0  0  0
 10 30  1  0  0  0
 11 12  1  0  0  0
 11 31  1  0  0  0
 12 32  1  0  0  0
 13 14  2  0  0  0
 13 21  1  0  0  0
 13 24  2  0  0  0
 15 16  1  0  0  0
 15 20  2  0  0  0
 15 21  1  0  0  0
 16 17  2  0  0  0
 16 22  1  0  0  0
 17 18  1  0  0  0
 17 33  1  0  0  0
 18 19  2  0  0  0
 18 34  1  0  0  0
 19 20  1  0  0  0
 19 35  1  0  0  0
 21 23  1  0  0  0
 22 23  2  0  0  0
 22 36  1  0  0  0
 23 37  1  0  0  0
M  END
> <s_m_entry_id>
52817

> <s_m_entry_name>
dock_pv.36

> <s_m_Source_Path>
/home/csk/Desktop/cluster/DUD-E-result/hdac8

> <s_m_Source_File>
dock_pv.maegz

> <i_m_Source_File_Index>
36

> <chembl_id>
CHEMBL3262727

> <chembl_pref_name>
None

> <i_lp_mmshare_version>
53161

> <i_f3d_flags>
0

> <r_lp_tautomer_probability>
1

> <s_lp_Force_Field>
OPLS_2005

> <r_lp_Energy>
12.866794

> <b_lp_Chiralities_Consistent>
1

> <s_lp_Variant>
CHEMBL3192_lig613-1

> <s_i_glide_gridfile>
glide-grid_3f07

> <i_i_glide_lignum>
639

> <i_i_glide_rotatable_bonds>
6

> <r_i_docking_score>
-8.34245956874446

> <r_i_glide_ligand_efficiency>
-0.347602482031019

> <r_i_glide_ligand_efficiency_sa>
-1.00265905963188

> <r_i_glide_ligand_efficiency_ln>
-1.99673338532589

> <r_i_glide_gscore>
-8.34245956874446

> <r_i_glide_lipo>
-1.37341912100764

> <r_i_glide_hbond>
-0.306090602825367

> <r_i_glide_metal>
-2.3

> <r_i_glide_rewards>
-1.26138555705399

> <r_i_glide_evdw>
-30.0990390777588

> <r_i_glide_ecoul>
-14.9812107086182

> <r_i_glide_erotb>
0.804700181792437

> <r_i_glide_esite>
-0.154130909469231

> <r_i_glide_emodel>
-72.8574468814584

> <r_i_glide_energy>
-45.080249786377

> <r_i_glide_einternal>
2.59635138511658

> <i_i_glide_confnum>
24

> <i_i_glide_posenum>
269

> <r_i_glide_eff_state_penalty>
0

> <s_user_duplicate_titles>
CHEMBL3192_lig613

> <s_m_subgroup_title>
dock_pv

> <s_m_subgroupid>
dock_pv

> <b_m_subgroup_collapsed>
1

$$$$
CHEMBL3192_lig693
                    3D
 Schrodinger Suite 2021-1.
 48 51  0  0  1  0            999 V2000
  -29.0317   28.9458  -39.9810 C   0  0  0  0  0  0
  -28.7188   27.9799  -39.0191 C   0  0  0  0  0  0
  -27.4864   28.0690  -38.3810 C   0  0  0  0  0  0
  -28.1324   29.9499  -40.3219 C   0  0  0  0  0  0
  -26.9003   30.0292  -39.6721 C   0  0  0  0  0  0
  -26.6114   29.1058  -38.6775 C   0  0  0  0  0  0
  -29.6954   26.8690  -38.7042 C   0  0  0  0  0  0
  -29.7744   26.4583  -37.4277 N   0  0  0  0  0  0
  -30.4696   26.4690  -39.5810 O   0  0  0  0  0  0
  -30.6130   25.3699  -37.1269 O   0  0  0  0  0  0
  -25.8831   30.9565  -39.9595 N   0  0  0  0  0  0
  -25.7689   31.9018  -41.0798 C   0  0  1  0  0  0
  -24.3833   32.5250  -41.0608 C   0  0  0  0  0  0
  -24.0923   32.8163  -42.5160 C   0  0  0  0  0  0
  -24.8686   31.8141  -43.2552 N   0  0  0  0  0  0
  -25.8071   31.2031  -42.4735 C   0  0  0  0  0  0
  -24.7296   31.6179  -44.6478 C   0  0  0  0  0  0
  -25.8523   31.5001  -45.4805 C   0  0  0  0  0  0
  -23.2697   31.4648  -46.5872 C   0  0  0  0  0  0
  -23.4493   31.5922  -45.2115 C   0  0  0  0  0  0
  -26.5615   30.2846  -42.8086 O   0  0  0  0  0  0
  -26.8600   33.0039  -41.0022 C   0  0  0  0  0  0
  -24.3892   31.3676  -47.4454 C   0  0  0  0  0  0
  -25.7009   31.3766  -46.8808 C   0  0  0  0  0  0
  -26.8058   31.2690  -47.7617 C   0  0  0  0  0  0
  -26.5805   31.1714  -49.1328 C   0  0  0  0  0  0
  -25.2690   31.1828  -49.6000 C   0  0  0  0  0  0
  -24.1848   31.2690  -48.7899 N   0  0  0  0  0  0
  -29.9734   28.9146  -40.5082 H   0  0  0  0  0  0
  -27.1949   27.3405  -37.6379 H   0  0  0  0  0  0
  -28.4054   30.6269  -41.1115 H   0  0  0  0  0  0
  -25.6599   29.1437  -38.1682 H   0  0  0  0  0  0
  -29.2093   26.7689  -36.6435 H   0  0  0  0  0  0
  -30.0042   24.6330  -37.0028 H   0  0  0  0  0  0
  -25.1728   31.0599  -39.2485 H   0  0  0  0  0  0
  -24.2996   33.4114  -40.4282 H   0  0  0  0  0  0
  -23.6347   31.8175  -40.6948 H   0  0  0  0  0  0
  -23.0242   32.7464  -42.7228 H   0  0  0  0  0  0
  -24.4295   33.8150  -42.7981 H   0  0  0  0  0  0
  -26.8523   31.5272  -45.0712 H   0  0  0  0  0  0
  -22.2730   31.4492  -47.0058 H   0  0  0  0  0  0
  -22.5724   31.6712  -44.5854 H   0  0  0  0  0  0
  -26.7123   33.7723  -41.7626 H   0  0  0  0  0  0
  -27.8721   32.6330  -41.1330 H   0  0  0  0  0  0
  -26.8250   33.5091  -40.0355 H   0  0  0  0  0  0
  -27.8130   31.2693  -47.3694 H   0  0  0  0  0  0
  -27.4130   31.0988  -49.8186 H   0  0  0  0  0  0
  -25.0666   31.1294  -50.6596 H   0  0  0  0  0  0
  1  2  2  0  0  0
  1  4  1  0  0  0
  1 29  1  0  0  0
  2  3  1  0  0  0
  2  7  1  0  0  0
  3  6  2  0  0  0
  3 30  1  0  0  0
  4  5  2  0  0  0
  4 31  1  0  0  0
  5  6  1  0  0  0
  5 11  1  0  0  0
  6 32  1  0  0  0
  7  8  1  0  0  0
  7  9  2  0  0  0
  8 10  1  0  0  0
  8 33  1  0  0  0
 10 34  1  0  0  0
 11 12  1  0  0  0
 11 35  1  0  0  0
 12 13  1  0  0  0
 12 16  1  0  0  0
 12 22  1  0  0  0
 13 14  1  0  0  0
 13 36  1  0  0  0
 13 37  1  0  0  0
 14 15  1  0  0  0
 14 38  1  0  0  0
 14 39  1  0  0  0
 15 16  1  0  0  0
 15 17  1  0  0  0
 16 21  2  0  0  0
 17 18  2  0  0  0
 17 20  1  0  0  0
 18 24  1  0  0  0
 18 40  1  0  0  0
 19 23  1  0  0  0
 19 20  2  0  0  0
 19 41  1  0  0  0
 20 42  1  0  0  0
 22 43  1  0  0  0
 22 44  1  0  0  0
 22 45  1  0  0  0
 23 24  1  0  0  0
 23 28  2  0  0  0
 24 25  2  0  0  0
 25 26  1  0  0  0
 25 46  1  0  0  0
 26 27  2  0  0  0
 26 47  1  0  0  0
 27 28  1  0  0  0
 27 48  1  0  0  0
M  END
> <s_m_entry_id>
52818

> <s_m_entry_name>
dock_pv.37

> <s_m_Source_Path>
/home/csk/Desktop/cluster/DUD-E-result/hdac8

> <s_m_Source_File>
dock_pv.maegz

> <i_m_Source_File_Index>
37

> <chembl_id>
CHEMBL3415628

> <chembl_pref_name>
None

> <i_lp_mmshare_version>
53161

> <i_f3d_flags>
0

> <r_lp_tautomer_probability>
1

> <s_lp_Force_Field>
OPLS_2005

> <r_lp_Energy>
51.316974

> <b_lp_Chiralities_Consistent>
1

> <s_lp_Variant>
CHEMBL3192_lig693-2

> <s_i_glide_gridfile>
glide-grid_3f07

> <i_i_glide_lignum>
737

> <i_i_glide_rotatable_bonds>
6

> <r_i_docking_score>
-8.33612813392914

> <r_i_glide_ligand_efficiency>
-0.297718861926041

> <r_i_glide_ligand_efficiency_sa>
-0.904049811839829

> <r_i_glide_ligand_efficiency_ln>
-1.92422313266832

> <r_i_glide_gscore>
-8.33612813392914

> <r_i_glide_lipo>
-1.09213718218185

> <r_i_glide_hbond>
-0.608

> <r_i_glide_metal>
-2.3

> <r_i_glide_rewards>
-1.04407514920673

> <r_i_glide_evdw>
-28.6694297790527

> <r_i_glide_ecoul>
-15.7055969238281

> <r_i_glide_erotb>
0.683120258945453

> <r_i_glide_esite>
-0.185725033959162

> <r_i_glide_emodel>
-69.564854715248

> <r_i_glide_energy>
-44.3750267028809

> <r_i_glide_einternal>
3.53289031982422

> <i_i_glide_confnum>
27

> <i_i_glide_posenum>
320

> <r_i_glide_eff_state_penalty>
0

> <s_user_duplicate_titles>
CHEMBL3192_lig693

> <s_m_subgroup_title>
dock_pv

> <s_m_subgroupid>
dock_pv

> <b_m_subgroup_collapsed>
1

$$$$
CHEMBL3192_lig226
                    3D
 Schrodinger Suite 2021-1.
 43 45  0  0  1  0            999 V2000
  -25.2992   31.7406  -47.1279 C   0  0  0  0  0  0
  -23.9870   32.1535  -46.9037 C   0  0  0  0  0  0
  -23.4037   32.1123  -45.6347 C   0  0  0  0  0  0
  -26.0924   31.2683  -46.0840 C   0  0  0  0  0  0
  -26.1091   30.7969  -43.6449 N   0  0  0  0  0  0
  -25.5289   31.2111  -44.8020 C   0  0  0  0  0  0
  -24.1936   31.6231  -44.5817 C   0  0  0  0  0  0
  -23.9832   31.4115  -43.2199 N   0  0  0  0  0  0
  -25.2029   30.9529  -42.7048 C   0  0  0  0  0  0
  -25.5548   30.6249  -41.2663 C   0  0  0  0  0  0
  -24.9577   31.2202  -40.1436 C   0  0  0  0  0  0
  -25.3501   30.8705  -38.8512 C   0  0  0  0  0  0
  -26.3847   29.9633  -38.6569 C   0  0  0  0  0  0
  -27.0312   29.3852  -39.7489 C   0  0  0  0  0  0
  -26.6027   29.7165  -41.0362 C   0  0  0  0  0  0
  -28.1557   28.4517  -39.5789 C   0  0  0  0  0  0
  -28.3583   27.6473  -38.5144 C   0  0  0  0  0  0
  -29.5185   26.7999  -38.4043 C   0  0  0  0  0  0
  -29.8130   26.4639  -37.1407 N   0  0  0  0  0  0
  -30.2131   26.4690  -39.3744 O   0  0  0  0  0  0
  -30.9617   25.6939  -36.8936 O   0  0  0  0  0  0
  -22.7286   31.6662  -42.4838 C   0  0  0  0  0  0
  -22.5703   33.1751  -42.2209 C   0  0  0  0  0  0
  -21.4893   31.0625  -43.1815 C   0  0  0  0  0  0
  -25.7112   31.7985  -48.1254 H   0  0  0  0  0  0
  -23.4056   32.5249  -47.7357 H   0  0  0  0  0  0
  -22.3924   32.4571  -45.4964 H   0  0  0  0  0  0
  -27.1129   30.9596  -46.2570 H   0  0  0  0  0  0
  -24.2055   31.9853  -40.2385 H   0  0  0  0  0  0
  -24.8788   31.3324  -37.9939 H   0  0  0  0  0  0
  -26.7018   29.7393  -37.6501 H   0  0  0  0  0  0
  -27.1058   29.2687  -41.8787 H   0  0  0  0  0  0
  -28.8788   28.4658  -40.3809 H   0  0  0  0  0  0
  -27.6571   27.6237  -37.6930 H   0  0  0  0  0  0
  -29.3125   26.7413  -36.3021 H   0  0  0  0  0  0
  -31.5551   26.3060  -36.4482 H   0  0  0  0  0  0
  -22.7865   31.1414  -41.5338 H   0  0  0  0  0  0
  -21.6978   33.3747  -41.5985 H   0  0  0  0  0  0
  -22.4440   33.7319  -43.1498 H   0  0  0  0  0  0
  -23.4378   33.5905  -41.7079 H   0  0  0  0  0  0
  -20.6613   30.9700  -42.4772 H   0  0  0  0  0  0
  -21.6849   30.0689  -43.5810 H   0  0  0  0  0  0
  -21.1190   31.6766  -43.9993 H   0  0  0  0  0  0
  1  2  2  0  0  0
  1  4  1  0  0  0
  1 25  1  0  0  0
  2  3  1  0  0  0
  2 26  1  0  0  0
  3  7  2  0  0  0
  3 27  1  0  0  0
  4  6  2  0  0  0
  4 28  1  0  0  0
  5  6  1  0  0  0
  5  9  2  0  0  0
  6  7  1  0  0  0
  7  8  1  0  0  0
  8  9  1  0  0  0
  8 22  1  0  0  0
  9 10  1  0  0  0
 10 15  1  0  0  0
 10 11  2  0  0  0
 11 12  1  0  0  0
 11 29  1  0  0  0
 12 13  2  0  0  0
 12 30  1  0  0  0
 13 14  1  0  0  0
 13 31  1  0  0  0
 14 15  2  0  0  0
 14 16  1  0  0  0
 15 32  1  0  0  0
 16 17  2  0  0  0
 16 33  1  0  0  0
 17 18  1  0  0  0
 17 34  1  0  0  0
 18 19  1  0  0  0
 18 20  2  0  0  0
 19 21  1  0  0  0
 19 35  1  0  0  0
 21 36  1  0  0  0
 22 23  1  0  0  0
 22 24  1  0  0  0
 22 37  1  0  0  0
 23 38  1  0  0  0
 23 39  1  0  0  0
 23 40  1  0  0  0
 24 41  1  0  0  0
 24 42  1  0  0  0
 24 43  1  0  0  0
M  END
> <s_m_entry_id>
52819

> <s_m_entry_name>
dock_pv.38

> <s_m_Source_Path>
/home/csk/Desktop/cluster/DUD-E-result/hdac8

> <s_m_Source_File>
dock_pv.maegz

> <i_m_Source_File_Index>
38

> <chembl_id>
CHEMBL1097017

> <chembl_pref_name>
None

> <i_lp_mmshare_version>
53161

> <i_f3d_flags>
0

> <r_lp_tautomer_probability>
1

> <s_lp_Force_Field>
OPLS_2005

> <r_lp_Energy>
32.557256

> <b_lp_Chiralities_Consistent>
1

> <s_lp_Variant>
CHEMBL3192_lig226-1

> <s_i_glide_gridfile>
glide-grid_3f07

> <i_i_glide_lignum>
236

> <i_i_glide_rotatable_bonds>
6

> <r_i_docking_score>
-8.3330974628316

> <r_i_glide_ligand_efficiency>
-0.34721239428465

> <r_i_glide_ligand_efficiency_sa>
-1.00153385186391

> <r_i_glide_ligand_efficiency_ln>
-1.9944926037819

> <r_i_glide_gscore>
-8.3330974628316

> <r_i_glide_lipo>
-1.30916347058354

> <r_i_glide_hbond>
-0.594911265992794

> <r_i_glide_metal>
-2.3

> <r_i_glide_rewards>
-1.39080666494229

> <r_i_glide_evdw>
-29.8407325744629

> <r_i_glide_ecoul>
-12.0626764297485

> <r_i_glide_erotb>
0.723685451017526

> <r_i_glide_esite>
-0.160463419145077

> <r_i_glide_emodel>
-66.9947213225972

> <r_i_glide_energy>
-41.9034090042114

> <r_i_glide_einternal>
4.55682706832886

> <i_i_glide_confnum>
5

> <i_i_glide_posenum>
282

> <r_i_glide_eff_state_penalty>
0

> <s_user_duplicate_titles>
CHEMBL3192_lig226,626502

> <s_m_subgroup_title>
dock_pv

> <s_m_subgroupid>
dock_pv

> <b_m_subgroup_collapsed>
1

$$$$
CHEMBL3192_lig132
                    3D
 Schrodinger Suite 2021-1.
 53 56  0  0  1  0            999 V2000
  -22.1117   32.7866  -42.2352 C   0  0  0  0  0  0
  -21.3151   32.1273  -41.2986 C   0  0  0  0  0  0
  -21.9054   31.3731  -40.2846 C   0  0  0  0  0  0
  -23.2945   31.2697  -40.2078 C   0  0  0  0  0  0
  -23.5028   32.6875  -42.1598 C   0  0  0  0  0  0
  -24.1023   31.9265  -41.1428 C   0  0  0  0  0  0
  -25.4952   31.8770  -41.1038 N   0  0  0  0  0  0
  -26.3027   32.1992  -42.3194 C   0  0  1  0  0  0
  -25.6315   33.3118  -43.1956 C   0  0  0  0  0  0
  -24.2919   33.3708  -43.0846 N   0  0  0  0  0  0
  -26.2683   31.8808  -39.8544 C   0  0  0  0  0  0
  -27.0568   30.5958  -39.6238 C   0  0  0  0  0  0
  -26.5554   29.6049  -38.7800 C   0  0  0  0  0  0
  -27.3136   28.4671  -38.5055 C   0  0  0  0  0  0
  -28.5642   28.2846  -39.0963 C   0  0  0  0  0  0
  -29.0332   29.2647  -39.9819 C   0  0  0  0  0  0
  -28.3042   30.4233  -40.2198 C   0  0  0  0  0  0
  -26.2621   34.1219  -43.8699 O   0  0  0  0  0  0
  -29.4130   27.0760  -38.7639 C   0  0  0  0  0  0
  -29.4449   26.6793  -37.4882 N   0  0  0  0  0  0
  -30.2094   26.6004  -39.5810 O   0  0  0  0  0  0
  -30.2627   25.5864  -37.1427 O   0  0  0  0  0  0
  -26.6640   30.9740  -43.2123 C   0  0  0  0  0  0
  -25.5120   30.1514  -43.8427 C   0  0  0  0  0  0
  -24.8843   30.7441  -45.0992 C   0  0  0  0  0  0
  -23.4952   30.8731  -45.1816 C   0  0  0  0  0  0
  -22.9134   31.4069  -46.3275 C   0  0  0  0  0  0
  -23.7180   31.8013  -47.3938 C   0  0  0  0  0  0
  -25.1029   31.6691  -47.3236 C   0  0  0  0  0  0
  -25.6865   31.1379  -46.1766 C   0  0  0  0  0  0
  -21.6428   33.3740  -43.0120 H   0  0  0  0  0  0
  -20.2392   32.2066  -41.3531 H   0  0  0  0  0  0
  -21.2875   30.8709  -39.5543 H   0  0  0  0  0  0
  -23.7352   30.6804  -39.4184 H   0  0  0  0  0  0
  -27.2460   32.6597  -42.0228 H   0  0  0  0  0  0
  -23.8584   34.0324  -43.7093 H   0  0  0  0  0  0
  -26.9449   32.7359  -39.8335 H   0  0  0  0  0  0
  -25.6046   32.0545  -39.0049 H   0  0  0  0  0  0
  -25.5885   29.7259  -38.3148 H   0  0  0  0  0  0
  -26.9311   27.7235  -37.8243 H   0  0  0  0  0  0
  -29.9965   29.1628  -40.4593 H   0  0  0  0  0  0
  -28.7089   31.1802  -40.8743 H   0  0  0  0  0  0
  -29.0130   27.1167  -36.6802 H   0  0  0  0  0  0
  -29.6426   24.8574  -37.0264 H   0  0  0  0  0  0
  -27.3714   31.2832  -43.9827 H   0  0  0  0  0  0
  -27.2357   30.2772  -42.6028 H   0  0  0  0  0  0
  -25.8835   29.1633  -44.1183 H   0  0  0  0  0  0
  -24.7478   29.9817  -43.0863 H   0  0  0  0  0  0
  -22.8616   30.5729  -44.3591 H   0  0  0  0  0  0
  -21.8398   31.5102  -46.3882 H   0  0  0  0  0  0
  -23.2630   32.2154  -48.2821 H   0  0  0  0  0  0
  -25.7217   31.9779  -48.1539 H   0  0  0  0  0  0
  -26.7605   31.0314  -46.1343 H   0  0  0  0  0  0
  1  5  1  0  0  0
  1  2  2  0  0  0
  1 31  1  0  0  0
  2  3  1  0  0  0
  2 32  1  0  0  0
  3  4  2  0  0  0
  3 33  1  0  0  0
  4  6  1  0  0  0
  4 34  1  0  0  0
  5 10  1  0  0  0
  5  6  2  0  0  0
  6  7  1  0  0  0
  7  8  1  0  0  0
  7 11  1  0  0  0
  8  9  1  0  0  0
  8 23  1  0  0  0
  8 35  1  0  0  0
  9 18  2  0  0  0
  9 10  1  0  0  0
 10 36  1  0  0  0
 11 12  1  0  0  0
 11 37  1  0  0  0
 11 38  1  0  0  0
 12 17  1  0  0  0
 12 13  2  0  0  0
 13 14  1  0  0  0
 13 39  1  0  0  0
 14 15  2  0  0  0
 14 40  1  0  0  0
 15 16  1  0  0  0
 15 19  1  0  0  0
 16 17  2  0  0  0
 16 41  1  0  0  0
 17 42  1  0  0  0
 19 20  1  0  0  0
 19 21  2  0  0  0
 20 22  1  0  0  0
 20 43  1  0  0  0
 22 44  1  0  0  0
 23 24  1  0  0  0
 23 45  1  0  0  0
 23 46  1  0  0  0
 24 25  1  0  0  0
 24 47  1  0  0  0
 24 48  1  0  0  0
 25 26  2  0  0  0
 25 30  1  0  0  0
 26 27  1  0  0  0
 26 49  1  0  0  0
 27 28  2  0  0  0
 27 50  1  0  0  0
 28 29  1  0  0  0
 28 51  1  0  0  0
 29 30  2  0  0  0
 29 52  1  0  0  0
 30 53  1  0  0  0
M  END
> <s_m_entry_id>
52820

> <s_m_entry_name>
dock_pv.39

> <s_m_Source_Path>
/home/csk/Desktop/cluster/DUD-E-result/hdac8

> <s_m_Source_File>
dock_pv.maegz

> <i_m_Source_File_Index>
39

> <chembl_id>
CHEMBL482358

> <chembl_pref_name>
None

> <i_lp_mmshare_version>
53161

> <i_f3d_flags>
0

> <r_lp_tautomer_probability>
1

> <s_lp_Force_Field>
OPLS_2005

> <r_lp_Energy>
38.171345

> <b_lp_Chiralities_Consistent>
1

> <s_lp_Variant>
CHEMBL3192_lig132-1

> <s_i_glide_gridfile>
glide-grid_3f07

> <i_i_glide_lignum>
141

> <i_i_glide_rotatable_bonds>
8

> <r_i_docking_score>
-8.32750792401086

> <r_i_glide_ligand_efficiency>
-0.277583597467029

> <r_i_glide_ligand_efficiency_sa>
-0.862516776191299

> <r_i_glide_ligand_efficiency_ln>
-1.89210053580144

> <r_i_glide_gscore>
-8.32750792401086

> <r_i_glide_lipo>
-1.69906752562364

> <r_i_glide_hbond>
-0.608

> <r_i_glide_metal>
-2.3

> <r_i_glide_rewards>
-0.958985947607255

> <r_i_glide_evdw>
-28.3444576263428

> <r_i_glide_ecoul>
-13.1507110595703

> <r_i_glide_erotb>
0.851902688614526

> <r_i_glide_esite>
-0.223527599141808

> <r_i_glide_emodel>
-61.7525470654077

> <r_i_glide_energy>
-41.4951686859131

> <r_i_glide_einternal>
6.90251445770264

> <i_i_glide_confnum>
23

> <i_i_glide_posenum>
343

> <r_i_glide_eff_state_penalty>
0

> <s_user_duplicate_titles>
CHEMBL3192_lig132,474723

> <s_m_subgroup_title>
dock_pv

> <s_m_subgroupid>
dock_pv

> <b_m_subgroup_collapsed>
1

$$$$
CHEMBL3192_lig798
                    3D
 Schrodinger Suite 2021-1.
 46 48  0  0  1  0            999 V2000
  -31.1228   26.0690  -37.0793 O   0  0  0  0  0  0
  -29.8131   26.5058  -37.3396 N   0  0  0  0  0  0
  -29.4461   26.7164  -38.6149 C   0  0  0  0  0  0
  -30.2131   26.5446  -39.5714 O   0  0  0  0  0  0
  -28.0021   27.1781  -38.8578 C   0  0  0  0  0  0
  -27.7835   28.6589  -39.1775 C   0  0  0  0  0  0
  -28.6380   29.3887  -40.0087 C   0  0  0  0  0  0
  -28.3429   30.7119  -40.3313 C   0  0  0  0  0  0
  -27.1856   31.3182  -39.8243 C   0  0  0  0  0  0
  -26.8289   32.7798  -40.1006 C   0  0  0  0  0  0
  -27.5365   33.4125  -41.3161 C   0  0  0  0  0  0
  -26.9728   34.7949  -41.6989 C   0  0  0  0  0  0
  -27.6896   35.4483  -42.9036 C   0  0  0  0  0  0
  -27.7390   34.6285  -44.1960 C   0  0  0  0  0  0
  -28.8259   34.7982  -45.0578 C   0  0  0  0  0  0
  -28.9632   34.0694  -46.2392 C   0  0  0  0  0  0
  -27.9586   33.1444  -46.5342 C   0  0  0  0  0  0
  -27.8127   32.2710  -47.5918 N   0  0  0  0  0  0
  -26.6532   31.5478  -47.4562 C   0  0  0  0  0  0
  -26.0143   31.9410  -46.2975 C   0  0  0  0  0  0
  -26.8256   32.9558  -45.6897 C   0  0  0  0  0  0
  -26.7197   33.7239  -44.5223 C   0  0  0  0  0  0
  -26.3298   30.5882  -39.0029 C   0  0  0  0  0  0
  -26.6242   29.2684  -38.6927 C   0  0  0  0  0  0
  -31.5523   26.8428  -36.7008 H   0  0  0  0  0  0
  -29.2711   26.6886  -36.5019 H   0  0  0  0  0  0
  -27.4120   26.9193  -37.9808 H   0  0  0  0  0  0
  -27.5821   26.5839  -39.6675 H   0  0  0  0  0  0
  -29.5262   28.9365  -40.4230 H   0  0  0  0  0  0
  -29.0225   31.2494  -40.9734 H   0  0  0  0  0  0
  -27.0124   33.3635  -39.1925 H   0  0  0  0  0  0
  -25.7501   32.8266  -40.2710 H   0  0  0  0  0  0
  -27.4139   32.7353  -42.1620 H   0  0  0  0  0  0
  -28.6087   33.4953  -41.1336 H   0  0  0  0  0  0
  -27.0450   35.4675  -40.8427 H   0  0  0  0  0  0
  -25.9050   34.7111  -41.9056 H   0  0  0  0  0  0
  -28.7101   35.6781  -42.5961 H   0  0  0  0  0  0
  -27.2198   36.4064  -43.1294 H   0  0  0  0  0  0
  -29.5974   35.5110  -44.8070 H   0  0  0  0  0  0
  -29.8124   34.2139  -46.8897 H   0  0  0  0  0  0
  -28.4493   32.1363  -48.3673 H   0  0  0  0  0  0
  -26.3867   30.8125  -48.2023 H   0  0  0  0  0  0
  -25.0785   31.5437  -45.9318 H   0  0  0  0  0  0
  -25.8653   33.5941  -43.8764 H   0  0  0  0  0  0
  -25.4360   31.0459  -38.5993 H   0  0  0  0  0  0
  -25.9378   28.7232  -38.0644 H   0  0  0  0  0  0
  1  2  1  0  0  0
  1 25  1  0  0  0
  2  3  1  0  0  0
  2 26  1  0  0  0
  3  4  2  0  0  0
  3  5  1  0  0  0
  5  6  1  0  0  0
  5 27  1  0  0  0
  5 28  1  0  0  0
  6  7  2  0  0  0
  6 24  1  0  0  0
  7  8  1  0  0  0
  7 29  1  0  0  0
  8  9  2  0  0  0
  8 30  1  0  0  0
  9 10  1  0  0  0
  9 23  1  0  0  0
 10 11  1  0  0  0
 10 31  1  0  0  0
 10 32  1  0  0  0
 11 12  1  0  0  0
 11 33  1  0  0  0
 11 34  1  0  0  0
 12 13  1  0  0  0
 12 35  1  0  0  0
 12 36  1  0  0  0
 13 14  1  0  0  0
 13 37  1  0  0  0
 13 38  1  0  0  0
 14 15  2  0  0  0
 14 22  1  0  0  0
 15 16  1  0  0  0
 15 39  1  0  0  0
 16 17  2  0  0  0
 16 40  1  0  0  0
 17 18  1  0  0  0
 17 21  1  0  0  0
 18 19  1  0  0  0
 18 41  1  0  0  0
 19 20  2  0  0  0
 19 42  1  0  0  0
 20 21  1  0  0  0
 20 43  1  0  0  0
 21 22  2  0  0  0
 22 44  1  0  0  0
 23 24  2  0  0  0
 23 45  1  0  0  0
 24 46  1  0  0  0
M  END
> <s_m_entry_id>
52821

> <s_m_entry_name>
dock_pv.40

> <s_m_Source_Path>
/home/csk/Desktop/cluster/DUD-E-result/hdac8

> <s_m_Source_File>
dock_pv.maegz

> <i_m_Source_File_Index>
40

> <chembl_id>
CHEMBL3698521

> <chembl_pref_name>
None

> <i_lp_mmshare_version>
53161

> <i_f3d_flags>
0

> <r_lp_tautomer_probability>
1

> <s_lp_Force_Field>
OPLS_2005

> <r_lp_Energy>
15.719161

> <b_lp_Chiralities_Consistent>
1

> <s_lp_Variant>
CHEMBL3192_lig798-1

> <s_i_glide_gridfile>
glide-grid_3f07

> <i_i_glide_lignum>
852

> <i_i_glide_rotatable_bonds>
9

> <r_i_docking_score>
-8.31373175094992

> <r_i_glide_ligand_efficiency>
-0.346405489622913

> <r_i_glide_ligand_efficiency_sa>
-0.999206336063038

> <r_i_glide_ligand_efficiency_ln>
-1.989857500294

> <r_i_glide_gscore>
-8.31373175094992

> <r_i_glide_lipo>
-1.3476873186707

> <r_i_glide_hbond>
-0.678684287106731

> <r_i_glide_metal>
-2.3

> <r_i_glide_rewards>
-1.43155848150817

> <r_i_glide_evdw>
-26.5860939025879

> <r_i_glide_ecoul>
-15.3592920303345

> <r_i_glide_erotb>
1.25934027139307

> <r_i_glide_esite>
-0.181943435377832

> <r_i_glide_emodel>
-60.8646714658672

> <r_i_glide_energy>
-41.9453859329224

> <r_i_glide_einternal>
10.6103210449219

> <i_i_glide_confnum>
14

> <i_i_glide_posenum>
342

> <r_i_glide_eff_state_penalty>
0

> <s_user_duplicate_titles>
CHEMBL3192_lig798

> <s_m_subgroup_title>
dock_pv

> <s_m_subgroupid>
dock_pv

> <b_m_subgroup_collapsed>
1

$$$$
CHEMBL3192_lig292
                    3D
 Schrodinger Suite 2021-1.
 60 61  0  0  1  0            999 V2000
  -22.8869   31.9910  -46.2973 C   0  0  0  0  0  0
  -23.7305   31.8217  -47.3957 C   0  0  0  0  0  0
  -25.0651   31.4659  -47.2062 C   0  0  0  0  0  0
  -25.5577   31.2692  -45.9174 C   0  0  0  0  0  0
  -23.3711   31.8047  -44.9926 C   0  0  0  0  0  0
  -22.6014   31.9405  -43.8536 O   0  0  0  0  0  0
  -21.2403   32.3425  -43.9343 C   0  0  0  0  0  0
  -20.6814   32.2869  -42.5051 C   0  0  0  0  0  0
  -21.3483   33.3096  -41.5626 C   0  0  0  0  0  0
  -24.7123   31.4353  -44.8119 C   0  0  0  0  0  0
  -21.1058   33.0491  -40.0634 C   0  0  0  0  0  0
  -25.1720   31.2627  -43.4973 N   0  0  0  0  0  0
  -25.8414   30.1945  -43.0271 C   0  0  0  0  0  0
  -26.0804   30.1068  -41.4968 C   0  0  2  0  0  0
  -26.2130   29.2690  -43.7480 O   0  0  0  0  0  0
  -27.5769   30.2172  -41.1068 C   0  0  0  0  0  0
  -25.3545   31.1254  -40.7885 O   0  0  0  0  0  0
  -23.9696   30.8623  -40.5652 C   0  0  0  0  0  0
  -23.3855   31.8786  -39.5810 C   0  0  0  0  0  0
  -21.8408   31.8235  -39.4723 C   0  0  0  0  0  0
  -27.8522   30.1359  -39.5839 C   0  0  0  0  0  0
  -27.5243   28.7839  -38.9098 C   0  0  0  0  0  0
  -28.5356   27.6450  -39.1907 C   0  0  0  0  0  0
  -29.3168   27.2080  -37.9273 C   0  0  0  0  0  0
  -30.3503   26.0924  -38.1308 C   0  0  0  0  0  0
  -30.5045   25.2297  -37.1134 N   0  0  0  0  0  0
  -31.0018   26.0690  -39.1810 O   0  0  0  0  0  0
  -31.4130   24.1727  -37.2591 O   0  0  0  0  0  0
  -21.8579   32.2645  -46.4740 H   0  0  0  0  0  0
  -23.3482   31.9709  -48.3949 H   0  0  0  0  0  0
  -25.7187   31.3408  -48.0571 H   0  0  0  0  0  0
  -26.5931   30.9927  -45.7784 H   0  0  0  0  0  0
  -21.1550   33.3493  -44.3469 H   0  0  0  0  0  0
  -20.6728   31.6690  -44.5732 H   0  0  0  0  0  0
  -19.6045   32.4583  -42.5240 H   0  0  0  0  0  0
  -20.8162   31.2737  -42.1251 H   0  0  0  0  0  0
  -22.4224   33.3514  -41.7462 H   0  0  0  0  0  0
  -20.9790   34.3050  -41.8138 H   0  0  0  0  0  0
  -21.4130   33.9367  -39.5088 H   0  0  0  0  0  0
  -20.0349   32.9514  -39.8805 H   0  0  0  0  0  0
  -24.7756   31.8861  -42.8079 H   0  0  0  0  0  0
  -25.7316   29.1226  -41.1852 H   0  0  0  0  0  0
  -28.1534   29.4419  -41.6114 H   0  0  0  0  0  0
  -27.9670   31.1671  -41.4752 H   0  0  0  0  0  0
  -23.4145   30.8693  -41.5031 H   0  0  0  0  0  0
  -23.8587   29.8788  -40.1169 H   0  0  0  0  0  0
  -23.8200   31.6690  -38.6027 H   0  0  0  0  0  0
  -23.7205   32.8855  -39.8331 H   0  0  0  0  0  0
  -21.4527   30.9025  -39.9089 H   0  0  0  0  0  0
  -21.5754   31.7597  -38.4156 H   0  0  0  0  0  0
  -28.8959   30.3866  -39.3884 H   0  0  0  0  0  0
  -27.2742   30.9162  -39.0869 H   0  0  0  0  0  0
  -27.4460   28.9496  -37.8347 H   0  0  0  0  0  0
  -26.5228   28.4657  -39.1950 H   0  0  0  0  0  0
  -27.9859   26.7859  -39.5810 H   0  0  0  0  0  0
  -29.2242   27.9486  -39.9808 H   0  0  0  0  0  0
  -29.8130   28.0689  -37.4817 H   0  0  0  0  0  0
  -28.6130   26.8690  -37.1810 H   0  0  0  0  0  0
  -29.9928   25.2004  -36.2413 H   0  0  0  0  0  0
  -30.8482   23.4100  -37.4419 H   0  0  0  0  0  0
  1  2  2  0  0  0
  1  5  1  0  0  0
  1 29  1  0  0  0
  2  3  1  0  0  0
  2 30  1  0  0  0
  3  4  2  0  0  0
  3 31  1  0  0  0
  4 10  1  0  0  0
  4 32  1  0  0  0
  5  6  1  0  0  0
  5 10  2  0  0  0
  6  7  1  0  0  0
  7  8  1  0  0  0
  7 33  1  0  0  0
  7 34  1  0  0  0
  8  9  1  0  0  0
  8 35  1  0  0  0
  8 36  1  0  0  0
  9 11  1  0  0  0
  9 37  1  0  0  0
  9 38  1  0  0  0
 10 12  1  0  0  0
 11 20  1  0  0  0
 11 39  1  0  0  0
 11 40  1  0  0  0
 12 13  1  0  0  0
 12 41  1  0  0  0
 13 14  1  0  0  0
 13 15  2  0  0  0
 14 16  1  0  0  0
 14 17  1  0  0  0
 14 42  1  0  0  0
 16 21  1  0  0  0
 16 43  1  0  0  0
 16 44  1  0  0  0
 17 18  1  0  0  0
 18 19  1  0  0  0
 18 45  1  0  0  0
 18 46  1  0  0  0
 19 20  1  0  0  0
 19 47  1  0  0  0
 19 48  1  0  0  0
 20 49  1  0  0  0
 20 50  1  0  0  0
 21 22  1  0  0  0
 21 51  1  0  0  0
 21 52  1  0  0  0
 22 23  1  0  0  0
 22 53  1  0  0  0
 22 54  1  0  0  0
 23 24  1  0  0  0
 23 55  1  0  0  0
 23 56  1  0  0  0
 24 25  1  0  0  0
 24 57  1  0  0  0
 24 58  1  0  0  0
 25 26  1  0  0  0
 25 27  2  0  0  0
 26 28  1  0  0  0
 26 59  1  0  0  0
 28 60  1  0  0  0
M  END
> <s_m_entry_id>
52822

> <s_m_entry_name>
dock_pv.41

> <s_m_Source_Path>
/home/csk/Desktop/cluster/DUD-E-result/hdac8

> <s_m_Source_File>
dock_pv.maegz

> <i_m_Source_File_Index>
41

> <chembl_id>
CHEMBL1631912

> <chembl_pref_name>
None

> <i_lp_mmshare_version>
53161

> <i_f3d_flags>
0

> <r_lp_tautomer_probability>
1

> <s_lp_Force_Field>
OPLS_2005

> <r_lp_Energy>
30.805199

> <b_lp_Chiralities_Consistent>
1

> <s_lp_Variant>
CHEMBL3192_lig292-1

> <s_i_glide_gridfile>
glide-grid_3f07

> <i_i_glide_lignum>
308

> <i_i_glide_rotatable_bonds>
8

> <r_i_docking_score>
-8.30289528357509

> <r_i_glide_ligand_efficiency>
-0.296531974413396

> <r_i_glide_ligand_efficiency_sa>
-0.900445722312079

> <r_i_glide_ligand_efficiency_ln>
-1.91655201504772

> <r_i_glide_gscore>
-8.30289528357509

> <r_i_glide_lipo>
-1.1104593854583

> <r_i_glide_hbond>
-0.454513065018101

> <r_i_glide_metal>
-2.3

> <r_i_glide_rewards>
-0.877369037084363

> <r_i_glide_evdw>
-32.9746627807617

> <r_i_glide_ecoul>
-17.1487312316895

> <r_i_glide_erotb>
0.760489027777172

> <r_i_glide_esite>
-0.1

> <r_i_glide_emodel>
-75.0503612137636

> <r_i_glide_energy>
-50.1233940124512

> <r_i_glide_einternal>
8.07378482818604

> <i_i_glide_confnum>
4

> <i_i_glide_posenum>
139

> <r_i_glide_eff_state_penalty>
0

> <s_user_duplicate_titles>
CHEMBL3192_lig292

> <s_m_subgroup_title>
dock_pv

> <s_m_subgroupid>
dock_pv

> <b_m_subgroup_collapsed>
1

$$$$
CHEMBL3192_lig136
                    3D
 Schrodinger Suite 2021-1.
 49 52  0  0  1  0            999 V2000
  -23.8305   30.8691  -38.5452 O   0  0  0  0  0  0
  -22.4738   31.4277  -40.4448 C   0  0  0  0  0  0
  -23.8180   31.2725  -39.7084 C   0  0  0  0  0  0
  -24.9281   31.6505  -40.4091 N   0  0  0  0  0  0
  -24.9135   31.9625  -41.8657 C   0  0  1  0  0  0
  -23.5505   32.3543  -42.4998 C   0  0  0  0  0  0
  -22.4682   31.9953  -41.7999 N   0  0  0  0  0  0
  -26.2274   31.7324  -39.7060 C   0  0  0  0  0  0
  -27.0273   30.4368  -39.5376 C   0  0  0  0  0  0
  -28.2319   30.2461  -40.2197 C   0  0  0  0  0  0
  -29.0016   29.1065  -39.9812 C   0  0  0  0  0  0
  -28.5839   28.1444  -39.0495 C   0  0  0  0  0  0
  -27.3783   28.3432  -38.3812 C   0  0  0  0  0  0
  -26.6160   29.4786  -38.6136 C   0  0  0  0  0  0
  -23.4330   32.9765  -43.5520 O   0  0  0  0  0  0
  -29.4275   26.9275  -38.7502 C   0  0  0  0  0  0
  -29.4130   26.4692  -37.4963 N   0  0  0  0  0  0
  -30.2132   26.4691  -39.5809 O   0  0  0  0  0  0
  -30.2129   25.3478  -37.1897 O   0  0  0  0  0  0
  -25.6226   30.9008  -42.7542 C   0  0  0  0  0  0
  -25.9998   31.3331  -44.1656 C   0  0  0  0  0  0
  -26.2543   31.2723  -46.4129 N   0  0  0  0  0  0
  -25.6748   30.6655  -45.3298 C   0  0  0  0  0  0
  -26.7919   32.4721  -44.5860 C   0  0  0  0  0  0
  -27.4049   33.5486  -43.9175 C   0  0  0  0  0  0
  -28.1542   34.4714  -44.6468 C   0  0  0  0  0  0
  -28.3125   34.3403  -46.0233 C   0  0  0  0  0  0
  -27.7203   33.2985  -46.7362 C   0  0  0  0  0  0
  -26.9593   32.3805  -46.0037 C   0  0  0  0  0  0
  -21.8600   32.0814  -39.8222 H   0  0  0  0  0  0
  -21.9588   30.4687  -40.4294 H   0  0  0  0  0  0
  -25.4772   32.8896  -41.9550 H   0  0  0  0  0  0
  -21.5785   32.2213  -42.2191 H   0  0  0  0  0  0
  -26.8518   32.4511  -40.2380 H   0  0  0  0  0  0
  -26.0912   32.1752  -38.7191 H   0  0  0  0  0  0
  -28.5788   30.9800  -40.9319 H   0  0  0  0  0  0
  -29.9301   28.9892  -40.5188 H   0  0  0  0  0  0
  -27.0150   27.6231  -37.6636 H   0  0  0  0  0  0
  -25.7140   29.5991  -38.0410 H   0  0  0  0  0  0
  -28.8800   26.8230  -36.7063 H   0  0  0  0  0  0
  -29.5877   24.6123  -37.1772 H   0  0  0  0  0  0
  -25.0116   29.9971  -42.7777 H   0  0  0  0  0  0
  -26.5449   30.5896  -42.2704 H   0  0  0  0  0  0
  -26.1567   30.9250  -47.3559 H   0  0  0  0  0  0
  -25.0860   29.7703  -45.4724 H   0  0  0  0  0  0
  -27.3075   33.6627  -42.8498 H   0  0  0  0  0  0
  -28.6263   35.3007  -44.1400 H   0  0  0  0  0  0
  -28.9077   35.0696  -46.5547 H   0  0  0  0  0  0
  -27.8490   33.2120  -47.8051 H   0  0  0  0  0  0
  1  3  2  0  0  0
  2  3  1  0  0  0
  2  7  1  0  0  0
  2 30  1  0  0  0
  2 31  1  0  0  0
  3  4  1  0  0  0
  4  8  1  0  0  0
  4  5  1  0  0  0
  5 20  1  0  0  0
  5  6  1  0  0  0
  5 32  1  0  0  0
  6  7  1  0  0  0
  6 15  2  0  0  0
  7 33  1  0  0  0
  8  9  1  0  0  0
  8 34  1  0  0  0
  8 35  1  0  0  0
  9 14  1  0  0  0
  9 10  2  0  0  0
 10 11  1  0  0  0
 10 36  1  0  0  0
 11 12  2  0  0  0
 11 37  1  0  0  0
 12 16  1  0  0  0
 12 13  1  0  0  0
 13 14  2  0  0  0
 13 38  1  0  0  0
 14 39  1  0  0  0
 16 17  1  0  0  0
 16 18  2  0  0  0
 17 19  1  0  0  0
 17 40  1  0  0  0
 19 41  1  0  0  0
 20 21  1  0  0  0
 20 42  1  0  0  0
 20 43  1  0  0  0
 21 23  2  0  0  0
 21 24  1  0  0  0
 22 23  1  0  0  0
 22 29  1  0  0  0
 22 44  1  0  0  0
 23 45  1  0  0  0
 24 25  1  0  0  0
 24 29  2  0  0  0
 25 26  2  0  0  0
 25 46  1  0  0  0
 26 27  1  0  0  0
 26 47  1  0  0  0
 27 28  2  0  0  0
 27 48  1  0  0  0
 28 29  1  0  0  0
 28 49  1  0  0  0
M  END
> <s_m_entry_id>
52823

> <s_m_entry_name>
dock_pv.42

> <s_m_Source_Path>
/home/csk/Desktop/cluster/DUD-E-result/hdac8

> <s_m_Source_File>
dock_pv.maegz

> <i_m_Source_File_Index>
42

> <chembl_id>
CHEMBL481719

> <chembl_pref_name>
None

> <i_lp_mmshare_version>
53161

> <i_f3d_flags>
0

> <r_lp_tautomer_probability>
1

> <s_lp_Force_Field>
OPLS_2005

> <r_lp_Energy>
26.813899

> <b_lp_Chiralities_Consistent>
1

> <s_lp_Variant>
CHEMBL3192_lig136-1

> <s_i_glide_gridfile>
glide-grid_3f07

> <i_i_glide_lignum>
145

> <i_i_glide_rotatable_bonds>
7

> <r_i_docking_score>
-8.30051143674633

> <r_i_glide_ligand_efficiency>
-0.286224532301598

> <r_i_glide_ligand_efficiency_sa>
-0.879372445527225

> <r_i_glide_ligand_efficiency_ln>
-1.90060663620583

> <r_i_glide_gscore>
-8.30051143674633

> <r_i_glide_lipo>
-1.59004925934033

> <r_i_glide_hbond>
-0.605521526580342

> <r_i_glide_metal>
-2.3

> <r_i_glide_rewards>
-1.00116503224089

> <r_i_glide_evdw>
-27.5608539581299

> <r_i_glide_ecoul>
-12.8192272186279

> <r_i_glide_erotb>
0.760772106127098

> <r_i_glide_esite>
-0.26362094401119

> <r_i_glide_emodel>
-62.4186899500033

> <r_i_glide_energy>
-40.3800811767578

> <r_i_glide_einternal>
4.79619026184082

> <i_i_glide_confnum>
12

> <i_i_glide_posenum>
175

> <r_i_glide_eff_state_penalty>
0

> <s_user_duplicate_titles>
CHEMBL3192_lig136

> <s_m_subgroup_title>
dock_pv

> <s_m_subgroupid>
dock_pv

> <b_m_subgroup_collapsed>
1

$$$$
CHEMBL3192_lig1001
                    3D
 Schrodinger Suite 2021-1.
 32 33  0  0  1  0            999 V2000
  -26.4842   34.5460  -41.2142 C   0  0  0  0  0  0
  -26.4504   34.3703  -42.5959 C   0  0  0  0  0  0
  -26.5152   33.0939  -43.1512 C   0  0  0  0  0  0
  -26.6130   31.9831  -42.3168 C   0  0  0  0  0  0
  -26.6473   32.1507  -40.9290 C   0  0  0  0  0  0
  -26.5853   33.4353  -40.3810 C   0  0  0  0  0  0
  -26.7751   30.9655  -40.0381 C   0  0  0  0  0  0
  -27.4680   29.8884  -40.4847 O   0  0  0  0  0  0
  -27.4944   29.0826  -39.3951 C   0  0  0  0  0  0
  -26.8353   29.5801  -38.3810 N   0  0  0  0  0  0
  -26.3661   30.8209  -38.7997 N   0  0  0  0  0  0
  -28.2361   27.7740  -39.5146 C   0  0  0  0  0  0
  -28.7778   27.2690  -38.2524 N   0  0  0  0  0  0
  -29.8355   26.4411  -38.1771 C   0  0  0  0  0  0
  -30.3090   26.0113  -36.7621 C   0  0  2  0  0  0
  -30.4563   26.0690  -39.1810 O   0  0  0  0  0  0
  -31.0130   24.7131  -36.8538 N   0  0  0  0  0  0
  -31.2266   27.0770  -36.1440 C   0  0  0  0  0  0
  -26.4255   35.5373  -40.7881 H   0  0  0  0  0  0
  -26.3683   35.2320  -43.2423 H   0  0  0  0  0  0
  -26.4869   32.9663  -44.2235 H   0  0  0  0  0  0
  -26.6642   30.9948  -42.7506 H   0  0  0  0  0  0
  -26.6130   33.5772  -39.3092 H   0  0  0  0  0  0
  -27.6085   27.0132  -39.9810 H   0  0  0  0  0  0
  -29.0752   27.9857  -40.1765 H   0  0  0  0  0  0
  -28.3267   27.5685  -37.3925 H   0  0  0  0  0  0
  -29.4260   25.9124  -36.1290 H   0  0  0  0  0  0
  -30.3982   23.9729  -37.1810 H   0  0  0  0  0  0
  -31.3616   24.4194  -35.9530 H   0  0  0  0  0  0
  -30.7821   28.0690  -36.2026 H   0  0  0  0  0  0
  -31.4130   26.8690  -35.0901 H   0  0  0  0  0  0
  -32.1917   27.1257  -36.6513 H   0  0  0  0  0  0
  1  2  2  0  0  0
  1  6  1  0  0  0
  1 19  1  0  0  0
  2  3  1  0  0  0
  2 20  1  0  0  0
  3  4  2  0  0  0
  3 21  1  0  0  0
  4  5  1  0  0  0
  4 22  1  0  0  0
  5  6  2  0  0  0
  5  7  1  0  0  0
  6 23  1  0  0  0
  7  8  1  0  0  0
  7 11  2  0  0  0
  8  9  1  0  0  0
  9 10  2  0  0  0
  9 12  1  0  0  0
 10 11  1  0  0  0
 12 13  1  0  0  0
 12 24  1  0  0  0
 12 25  1  0  0  0
 13 14  1  0  0  0
 13 26  1  0  0  0
 14 15  1  0  0  0
 14 16  2  0  0  0
 15 17  1  0  0  0
 15 18  1  0  0  0
 15 27  1  0  0  0
 17 28  1  0  0  0
 17 29  1  0  0  0
 18 30  1  0  0  0
 18 31  1  0  0  0
 18 32  1  0  0  0
M  END
> <s_m_entry_id>
52824

> <s_m_entry_name>
dock_pv.43

> <s_m_Source_Path>
/home/csk/Desktop/cluster/DUD-E-result/hdac8

> <s_m_Source_File>
dock_pv.maegz

> <i_m_Source_File_Index>
43

> <chembl_id>
CHEMBL3930237

> <chembl_pref_name>
None

> <i_lp_mmshare_version>
53161

> <i_f3d_flags>
0

> <r_lp_tautomer_probability>
1

> <s_lp_Force_Field>
OPLS_2005

> <r_lp_Energy>
5.742232

> <b_lp_Chiralities_Consistent>
1

> <s_lp_Variant>
CHEMBL3192_lig1001-1

> <s_i_glide_gridfile>
glide-grid_3f07

> <i_i_glide_lignum>
1063

> <i_i_glide_rotatable_bonds>
5

> <r_i_docking_score>
-8.30018258225481

> <r_i_glide_ligand_efficiency>
-0.461121254569712

> <r_i_glide_ligand_efficiency_sa>
-1.20847955843606

> <r_i_glide_ligand_efficiency_ln>
-2.13351913359133

> <r_i_glide_gscore>
-8.30018258225481

> <r_i_glide_lipo>
-0.810205711645034

> <r_i_glide_hbond>
-0.674602466339033

> <r_i_glide_metal>
-2.3

> <r_i_glide_rewards>
-1.85534382024631

> <r_i_glide_evdw>
-26.74196434021

> <r_i_glide_ecoul>
-15.1578769683838

> <r_i_glide_erotb>
1.14924944882316

> <r_i_glide_esite>
-0.19850027057953

> <r_i_glide_emodel>
-65.5305169321384

> <r_i_glide_energy>
-41.8998413085938

> <r_i_glide_einternal>
4.40672206878662

> <i_i_glide_confnum>
13

> <i_i_glide_posenum>
149

> <r_i_glide_eff_state_penalty>
0

> <s_user_duplicate_titles>
CHEMBL3192_lig1001

> <s_m_subgroup_title>
dock_pv

> <s_m_subgroupid>
dock_pv

> <b_m_subgroup_collapsed>
1

$$$$
CHEMBL3192_lig997
                    3D
 Schrodinger Suite 2021-1.
 35 36  0  0  1  0            999 V2000
  -25.4217   34.0115  -41.2925 C   0  0  0  0  0  0
  -24.0833   33.6325  -41.1808 C   0  0  0  0  0  0
  -23.7535   32.3373  -40.7827 C   0  0  0  0  0  0
  -24.7599   31.4269  -40.4779 C   0  0  0  0  0  0
  -26.1045   31.8058  -40.5694 C   0  0  0  0  0  0
  -26.4296   33.1009  -40.9872 C   0  0  0  0  0  0
  -27.1749   30.8388  -40.1935 C   0  0  0  0  0  0
  -26.8197   29.5734  -39.8607 O   0  0  0  0  0  0
  -27.9997   29.0146  -39.5035 C   0  0  0  0  0  0
  -29.0127   29.8360  -39.6367 N   0  0  0  0  0  0
  -28.4713   31.0354  -40.0933 N   0  0  0  0  0  0
  -27.9692   27.5741  -39.0500 C   0  0  0  0  0  0
  -28.9114   27.2689  -37.9813 N   0  0  0  0  0  0
  -29.9624   26.4503  -38.0906 C   0  0  0  0  0  0
  -30.6453   26.0696  -36.7527 C   0  0  2  0  0  0
  -30.4046   26.0690  -39.1809 O   0  0  0  0  0  0
  -31.3880   24.8030  -36.9123 N   0  0  0  0  0  0
  -22.9786   34.6267  -41.4849 C   0  0  0  0  0  0
  -31.5350   27.2173  -36.2431 C   0  0  0  0  0  0
  -25.6814   35.0139  -41.5973 H   0  0  0  0  0  0
  -22.7191   32.0429  -40.6861 H   0  0  0  0  0  0
  -24.4869   30.4349  -40.1488 H   0  0  0  0  0  0
  -27.4606   33.4120  -41.0626 H   0  0  0  0  0  0
  -27.0130   27.4124  -38.5667 H   0  0  0  0  0  0
  -27.9835   26.8681  -39.8780 H   0  0  0  0  0  0
  -28.6370   27.5689  -37.0462 H   0  0  0  0  0  0
  -29.8441   25.9196  -36.0271 H   0  0  0  0  0  0
  -30.7751   24.0397  -37.1809 H   0  0  0  0  0  0
  -31.8200   24.5269  -36.0431 H   0  0  0  0  0  0
  -23.3502   35.5011  -42.0186 H   0  0  0  0  0  0
  -22.5013   34.9508  -40.5578 H   0  0  0  0  0  0
  -22.2138   34.1642  -42.1087 H   0  0  0  0  0  0
  -31.0483   28.1857  -36.3556 H   0  0  0  0  0  0
  -31.7547   27.1051  -35.1812 H   0  0  0  0  0  0
  -32.4829   27.2688  -36.7811 H   0  0  0  0  0  0
  1  2  2  0  0  0
  1  6  1  0  0  0
  1 20  1  0  0  0
  2  3  1  0  0  0
  2 18  1  0  0  0
  3  4  2  0  0  0
  3 21  1  0  0  0
  4  5  1  0  0  0
  4 22  1  0  0  0
  5  6  2  0  0  0
  5  7  1  0  0  0
  6 23  1  0  0  0
  7  8  1  0  0  0
  7 11  2  0  0  0
  8  9  1  0  0  0
  9 10  2  0  0  0
  9 12  1  0  0  0
 10 11  1  0  0  0
 12 13  1  0  0  0
 12 24  1  0  0  0
 12 25  1  0  0  0
 13 14  1  0  0  0
 13 26  1  0  0  0
 14 15  1  0  0  0
 14 16  2  0  0  0
 15 17  1  0  0  0
 15 19  1  0  0  0
 15 27  1  0  0  0
 17 28  1  0  0  0
 17 29  1  0  0  0
 18 30  1  0  0  0
 18 31  1  0  0  0
 18 32  1  0  0  0
 19 33  1  0  0  0
 19 34  1  0  0  0
 19 35  1  0  0  0
M  END
> <s_m_entry_id>
52825

> <s_m_entry_name>
dock_pv.44

> <s_m_Source_Path>
/home/csk/Desktop/cluster/DUD-E-result/hdac8

> <s_m_Source_File>
dock_pv.maegz

> <i_m_Source_File_Index>
44

> <chembl_id>
CHEMBL3970888

> <chembl_pref_name>
None

> <i_lp_mmshare_version>
53161

> <i_f3d_flags>
0

> <r_lp_tautomer_probability>
1

> <s_lp_Force_Field>
OPLS_2005

> <r_lp_Energy>
5.229418

> <b_lp_Chiralities_Consistent>
1

> <s_lp_Variant>
CHEMBL3192_lig997-1

> <s_i_glide_gridfile>
glide-grid_3f07

> <i_i_glide_lignum>
1059

> <i_i_glide_rotatable_bonds>
5

> <r_i_docking_score>
-8.27666765461453

> <r_i_glide_ligand_efficiency>
-0.435614087084975

> <r_i_glide_ligand_efficiency_sa>
-1.16239334704319

> <r_i_glide_ligand_efficiency_ln>
-2.09831301696638

> <r_i_glide_gscore>
-8.27666765461453

> <r_i_glide_lipo>
-0.75761632151534

> <r_i_glide_hbond>
-0.498374496164491

> <r_i_glide_metal>
-2.3

> <r_i_glide_rewards>
-1.69815958276441

> <r_i_glide_evdw>
-27.6145000457764

> <r_i_glide_ecoul>
-16.6273899078369

> <r_i_glide_erotb>
1.04498819282473

> <r_i_glide_esite>
-0.192671958530668

> <r_i_glide_emodel>
-69.0514079573831

> <r_i_glide_energy>
-44.2418899536133

> <r_i_glide_einternal>
5.24436235427856

> <i_i_glide_confnum>
5

> <i_i_glide_posenum>
330

> <r_i_glide_eff_state_penalty>
0

> <s_user_duplicate_titles>
CHEMBL3192_lig997

> <s_m_subgroup_title>
dock_pv

> <s_m_subgroupid>
dock_pv

> <b_m_subgroup_collapsed>
1

$$$$
CHEMBL3192_lig479
                    3D
 Schrodinger Suite 2021-1.
 39 40  0  0  1  0            999 V2000
  -24.6583   31.3394  -45.2377 C   0  0  0  0  0  0
  -25.9562   31.5445  -44.7448 C   0  0  0  0  0  0
  -26.1609   31.6373  -43.3627 C   0  0  0  0  0  0
  -25.0860   31.5279  -42.4665 C   0  0  0  0  0  0
  -23.8084   31.2995  -42.9779 C   0  0  0  0  0  0
  -23.5911   31.2061  -44.3508 C   0  0  0  0  0  0
  -24.3348   31.2690  -46.9350 Cl  0  0  0  0  0  0
  -27.1409   31.6960  -45.6889 C   0  0  0  0  0  0
  -25.1724   31.6437  -41.0937 O   0  0  0  0  0  0
  -26.3859   32.0147  -40.4384 C   0  0  0  0  0  0
  -27.1455   30.7728  -39.9810 C   0  0  0  0  0  0
  -26.7573   30.0501  -38.8416 C   0  0  0  0  0  0
  -27.4595   28.8913  -38.4731 C   0  0  0  0  0  0
  -28.6002   28.4754  -39.1810 C   0  0  0  0  0  0
  -29.0128   29.2665  -40.2643 C   0  0  0  0  0  0
  -28.2783   30.3690  -40.6841 C   0  0  0  0  0  0
  -25.7825   30.5288  -38.0007 O   0  0  0  0  0  0
  -24.4342   30.2621  -38.3612 C   0  0  0  0  0  0
  -29.4130   27.2475  -38.7920 C   0  0  0  0  0  0
  -30.2130   26.7288  -39.5810 O   0  0  0  0  0  0
  -29.4130   26.8690  -37.5105 N   0  0  0  0  0  0
  -30.2130   25.8109  -37.0313 N   0  0  0  0  0  0
  -27.1609   31.8067  -43.0030 H   0  0  0  0  0  0
  -22.9721   31.2204  -42.2987 H   0  0  0  0  0  0
  -22.5890   31.0516  -44.7263 H   0  0  0  0  0  0
  -26.9070   32.4084  -46.4807 H   0  0  0  0  0  0
  -27.3764   30.7421  -46.1613 H   0  0  0  0  0  0
  -28.0305   32.0690  -45.1810 H   0  0  0  0  0  0
  -27.0090   32.6858  -41.0304 H   0  0  0  0  0  0
  -26.1138   32.6001  -39.5600 H   0  0  0  0  0  0
  -27.1287   28.3479  -37.6010 H   0  0  0  0  0  0
  -29.9110   29.0171  -40.8064 H   0  0  0  0  0  0
  -28.6130   30.9166  -41.5500 H   0  0  0  0  0  0
  -23.8129   30.3160  -37.4675 H   0  0  0  0  0  0
  -24.3054   29.2690  -38.7812 H   0  0  0  0  0  0
  -24.0425   31.0005  -39.0573 H   0  0  0  0  0  0
  -28.8276   27.2990  -36.7984 H   0  0  0  0  0  0
  -31.1843   26.0146  -37.2212 H   0  0  0  0  0  0
  -29.9349   24.9520  -37.4905 H   0  0  0  0  0  0
  1  2  2  0  0  0
  1  6  1  0  0  0
  1  7  1  0  0  0
  2  3  1  0  0  0
  2  8  1  0  0  0
  3  4  2  0  0  0
  3 23  1  0  0  0
  4  5  1  0  0  0
  4  9  1  0  0  0
  5  6  2  0  0  0
  5 24  1  0  0  0
  6 25  1  0  0  0
  8 26  1  0  0  0
  8 27  1  0  0  0
  8 28  1  0  0  0
  9 10  1  0  0  0
 10 11  1  0  0  0
 10 29  1  0  0  0
 10 30  1  0  0  0
 11 12  2  0  0  0
 11 16  1  0  0  0
 12 13  1  0  0  0
 12 17  1  0  0  0
 13 14  2  0  0  0
 13 31  1  0  0  0
 14 15  1  0  0  0
 14 19  1  0  0  0
 15 16  2  0  0  0
 15 32  1  0  0  0
 16 33  1  0  0  0
 17 18  1  0  0  0
 18 34  1  0  0  0
 18 35  1  0  0  0
 18 36  1  0  0  0
 19 20  2  0  0  0
 19 21  1  0  0  0
 21 22  1  0  0  0
 21 37  1  0  0  0
 22 38  1  0  0  0
 22 39  1  0  0  0
M  END
> <s_m_entry_id>
52826

> <s_m_entry_name>
dock_pv.45

> <s_m_Source_Path>
/home/csk/Desktop/cluster/DUD-E-result/hdac8

> <s_m_Source_File>
dock_pv.maegz

> <i_m_Source_File_Index>
45

> <chembl_id>
CHEMBL2235193

> <chembl_pref_name>
None

> <i_lp_mmshare_version>
53161

> <i_f3d_flags>
0

> <r_lp_tautomer_probability>
1

> <s_lp_Force_Field>
OPLS_2005

> <r_lp_Energy>
23.950856

> <b_lp_Chiralities_Consistent>
1

> <s_lp_Variant>
CHEMBL3192_lig479-1

> <s_i_glide_gridfile>
glide-grid_3f07

> <i_i_glide_lignum>
500

> <i_i_glide_rotatable_bonds>
6

> <r_i_docking_score>
-8.2692786098676

> <r_i_glide_ligand_efficiency>
-0.375876300448527

> <r_i_glide_ligand_efficiency_sa>
-1.05322017623283

> <r_i_glide_ligand_efficiency_ln>
-2.0213133215177

> <r_i_glide_gscore>
-8.2692786098676

> <r_i_glide_lipo>
-1.53512495656391

> <r_i_glide_hbond>
-0.608

> <r_i_glide_metal>
-2.29135534448845

> <r_i_glide_rewards>
-1.50193289912385

> <r_i_glide_evdw>
-22.5730495452881

> <r_i_glide_ecoul>
-11.5353078842163

> <r_i_glide_erotb>
0.726083250205471

> <r_i_glide_esite>
-0.2

> <r_i_glide_emodel>
-49.0862548360821

> <r_i_glide_energy>
-34.1083574295044

> <r_i_glide_einternal>
8.59510231018066

> <i_i_glide_confnum>
36

> <i_i_glide_posenum>
133

> <r_i_glide_eff_state_penalty>
0

> <s_user_duplicate_titles>
CHEMBL3192_lig479

> <s_m_subgroup_title>
dock_pv

> <s_m_subgroupid>
dock_pv

> <b_m_subgroup_collapsed>
1

$$$$
CHEMBL3192_lig985
                    3D
 Schrodinger Suite 2021-1.
 26 27  0  0  1  0            999 V2000
  -27.3458   28.6662  -38.7810 C   0  0  0  0  0  0
  -28.6277   28.3730  -39.2669 C   0  0  0  0  0  0
  -29.2151   29.2690  -40.1723 C   0  0  0  0  0  0
  -28.5818   30.4508  -40.5322 C   0  0  0  0  0  0
  -26.6807   29.8348  -39.1810 C   0  0  0  0  0  0
  -27.3189   30.7403  -40.0364 C   0  0  0  0  0  0
  -26.5861   32.3079  -40.3710 S   0  0  0  0  0  0
  -24.8344   31.7815  -40.4035 C   0  0  1  0  0  0
  -24.4331   30.9100  -39.1810 C   0  0  0  0  0  0
  -25.3818   30.0690  -38.7258 N   0  0  0  0  0  0
  -24.5126   31.0346  -41.7111 C   0  0  0  0  0  0
  -23.2979   30.8690  -38.7167 O   0  0  0  0  0  0
  -29.4130   27.1569  -38.8232 C   0  0  0  0  0  0
  -30.2130   26.5947  -39.5810 O   0  0  0  0  0  0
  -29.4130   26.8690  -37.5234 N   0  0  0  0  0  0
  -30.2130   25.8013  -37.0655 O   0  0  0  0  0  0
  -26.8633   27.9871  -38.0933 H   0  0  0  0  0  0
  -30.2016   29.0874  -40.5729 H   0  0  0  0  0  0
  -29.0819   31.1512  -41.1810 H   0  0  0  0  0  0
  -24.2416   32.6961  -40.3473 H   0  0  0  0  0  0
  -25.0152   29.4646  -38.0077 H   0  0  0  0  0  0
  -23.4391   30.8689  -41.8096 H   0  0  0  0  0  0
  -25.0159   30.0690  -41.7717 H   0  0  0  0  0  0
  -24.8214   31.6191  -42.5784 H   0  0  0  0  0  0
  -28.8468   27.2910  -36.7887 H   0  0  0  0  0  0
  -29.5817   25.0982  -36.8786 H   0  0  0  0  0  0
  1  5  1  0  0  0
  1  2  2  0  0  0
  1 17  1  0  0  0
  2  3  1  0  0  0
  2 13  1  0  0  0
  3  4  2  0  0  0
  3 18  1  0  0  0
  4  6  1  0  0  0
  4 19  1  0  0  0
  5  6  2  0  0  0
  5 10  1  0  0  0
  6  7  1  0  0  0
  7  8  1  0  0  0
  8  9  1  0  0  0
  8 11  1  0  0  0
  8 20  1  0  0  0
  9 10  1  0  0  0
  9 12  2  0  0  0
 10 21  1  0  0  0
 11 22  1  0  0  0
 11 23  1  0  0  0
 11 24  1  0  0  0
 13 14  2  0  0  0
 13 15  1  0  0  0
 15 16  1  0  0  0
 15 25  1  0  0  0
 16 26  1  0  0  0
M  END
> <s_m_entry_id>
52827

> <s_m_entry_name>
dock_pv.46

> <s_m_Source_Path>
/home/csk/Desktop/cluster/DUD-E-result/hdac8

> <s_m_Source_File>
dock_pv.maegz

> <i_m_Source_File_Index>
46

> <chembl_id>
CHEMBL3800287

> <chembl_pref_name>
None

> <i_lp_mmshare_version>
53161

> <i_f3d_flags>
0

> <r_lp_tautomer_probability>
1

> <s_lp_Force_Field>
OPLS_2005

> <r_lp_Energy>
22.337212

> <b_lp_Chiralities_Consistent>
1

> <s_lp_Variant>
CHEMBL3192_lig985-2

> <s_i_glide_gridfile>
glide-grid_3f07

> <i_i_glide_lignum>
1047

> <i_i_glide_rotatable_bonds>
3

> <r_i_docking_score>
-8.26579525821356

> <r_i_glide_ligand_efficiency>
-0.516612203638347

> <r_i_glide_ligand_efficiency_sa>
-1.30178117878996

> <r_i_glide_ligand_efficiency_ln>
-2.19101414619778

> <r_i_glide_gscore>
-8.26579525821356

> <r_i_glide_lipo>
-0.936562492946733

> <r_i_glide_hbond>
-0.608

> <r_i_glide_metal>
-2.3

> <r_i_glide_rewards>
-2.04693184874481

> <r_i_glide_evdw>
-19.6390419006348

> <r_i_glide_ecoul>
-12.0021228790283

> <r_i_glide_erotb>
0.607969610363975

> <r_i_glide_esite>
-0.2

> <r_i_glide_emodel>
-48.8252425824823

> <r_i_glide_energy>
-31.6411647796631

> <r_i_glide_einternal>
1.6912841796875

> <i_i_glide_confnum>
3

> <i_i_glide_posenum>
178

> <r_i_glide_eff_state_penalty>
0

> <s_user_duplicate_titles>
CHEMBL3192_lig985

> <s_m_subgroup_title>
dock_pv

> <s_m_subgroupid>
dock_pv

> <b_m_subgroup_collapsed>
1

$$$$
CHEMBL3192_lig715
                    3D
 Schrodinger Suite 2021-1.
 43 45  0  0  1  0            999 V2000
  -25.9934   31.8447  -41.3634 N   0  0  2  0  0  0
  -30.2132   26.4700  -39.5808 O   0  0  0  0  0  0
  -25.2426   30.8951  -43.5336 C   0  0  0  0  0  0
  -27.3768   28.3535  -38.3810 C   0  0  0  0  0  0
  -26.5997   29.4735  -38.6672 C   0  0  0  0  0  0
  -29.0130   29.0847  -39.9810 C   0  0  0  0  0  0
  -29.4362   26.9241  -38.7356 C   0  0  0  0  0  0
  -26.1413   31.6043  -39.9307 C   0  0  0  0  0  0
  -26.3621   31.8018  -46.7265 C   0  0  0  0  0  0
  -26.1052   31.5241  -44.2857 N   0  0  0  0  0  0
  -28.5904   28.1411  -39.0350 C   0  0  0  0  0  0
  -24.3133   30.2055  -44.2390 O   0  0  0  0  0  0
  -25.6799   31.2490  -45.5044 C   0  0  0  0  0  0
  -28.2398   30.2041  -40.2716 C   0  0  0  0  0  0
  -24.6162   30.4693  -45.5720 N   0  0  0  0  0  0
  -27.0230   30.3987  -39.6165 C   0  0  0  0  0  0
  -29.4291   26.4691  -37.4795 N   0  0  0  0  0  0
  -25.1960   30.8031  -42.0198 C   0  0  0  0  0  0
  -25.7757   31.6683  -47.9927 C   0  0  0  0  0  0
  -26.3969   32.1980  -49.1200 C   0  0  0  0  0  0
  -27.6147   32.8667  -48.9954 C   0  0  0  0  0  0
  -28.2123   33.0030  -47.7425 C   0  0  0  0  0  0
  -27.5897   32.4715  -46.6159 C   0  0  0  0  0  0
  -30.2131   25.3387  -37.1722 O   0  0  0  0  0  0
  -28.2855   33.4355  -50.2314 C   0  0  0  0  0  0
  -25.5563   32.7485  -41.4961 H   0  0  0  0  0  0
  -27.0131   27.6435  -37.6537 H   0  0  0  0  0  0
  -25.6538   29.6074  -38.1640 H   0  0  0  0  0  0
  -29.9455   28.9609  -40.5108 H   0  0  0  0  0  0
  -26.6050   32.4813  -39.4783 H   0  0  0  0  0  0
  -25.1595   31.5190  -39.4594 H   0  0  0  0  0  0
  -28.5743   30.9093  -41.0194 H   0  0  0  0  0  0
  -28.8954   26.8229  -36.6893 H   0  0  0  0  0  0
  -24.1665   30.8700  -41.6627 H   0  0  0  0  0  0
  -25.5619   29.8181  -41.7277 H   0  0  0  0  0  0
  -24.8275   31.1641  -48.1107 H   0  0  0  0  0  0
  -25.9321   32.0903  -50.0892 H   0  0  0  0  0  0
  -29.1618   33.5087  -47.6399 H   0  0  0  0  0  0
  -28.0702   32.5840  -45.6552 H   0  0  0  0  0  0
  -29.5786   24.6126  -37.1512 H   0  0  0  0  0  0
  -27.5784   34.0468  -50.7956 H   0  0  0  0  0  0
  -28.6130   32.6261  -50.8848 H   0  0  0  0  0  0
  -29.1426   34.0655  -49.9813 H   0  0  0  0  0  0
  1 18  1  0  0  0
  1  8  1  0  0  0
  1 26  1  0  0  0
  2  7  2  0  0  0
  3 12  1  0  0  0
  3 10  2  0  0  0
  3 18  1  0  0  0
  4  5  1  0  0  0
  4 11  2  0  0  0
  4 27  1  0  0  0
  5 16  2  0  0  0
  5 28  1  0  0  0
  6 14  2  0  0  0
  6 11  1  0  0  0
  6 29  1  0  0  0
  7 11  1  0  0  0
  7 17  1  0  0  0
  8 16  1  0  0  0
  8 30  1  0  0  0
  8 31  1  0  0  0
  9 13  1  0  0  0
  9 19  1  0  0  0
  9 23  2  0  0  0
 10 13  1  0  0  0
 12 15  1  0  0  0
 13 15  2  0  0  0
 14 16  1  0  0  0
 14 32  1  0  0  0
 17 24  1  0  0  0
 17 33  1  0  0  0
 18 34  1  0  0  0
 18 35  1  0  0  0
 19 20  2  0  0  0
 19 36  1  0  0  0
 20 21  1  0  0  0
 20 37  1  0  0  0
 21 22  2  0  0  0
 21 25  1  0  0  0
 22 23  1  0  0  0
 22 38  1  0  0  0
 23 39  1  0  0  0
 24 40  1  0  0  0
 25 41  1  0  0  0
 25 42  1  0  0  0
 25 43  1  0  0  0
M  END
> <s_m_entry_id>
52828

> <s_m_entry_name>
dock_pv.47

> <s_m_Source_Path>
/home/csk/Desktop/cluster/DUD-E-result/hdac8

> <s_m_Source_File>
dock_pv.maegz

> <i_m_Source_File_Index>
47

> <chembl_id>
CHEMBL3421748

> <chembl_pref_name>
None

> <i_lp_mmshare_version>
53161

> <i_f3d_flags>
0

> <r_lp_tautomer_probability>
1

> <s_lp_Force_Field>
OPLS_2005

> <r_lp_Energy>
30.757772

> <b_lp_Chiralities_Consistent>
1

> <s_lp_Variant>
CHEMBL3192_lig715-1

> <s_i_glide_gridfile>
glide-grid_3f07

> <i_i_glide_lignum>
759

> <i_i_glide_rotatable_bonds>
8

> <r_i_docking_score>
-8.26426410564629

> <r_i_glide_ligand_efficiency>
-0.330570564225851

> <r_i_glide_ligand_efficiency_sa>
-0.966594192490309

> <r_i_glide_ligand_efficiency_ln>
-1.95887825304848

> <r_i_glide_gscore>
-8.26426410564629

> <r_i_glide_lipo>
-1.5483033661294

> <r_i_glide_hbond>
-0.606193622965623

> <r_i_glide_metal>
-2.3

> <r_i_glide_rewards>
-1.36704748954555

> <r_i_glide_evdw>
-25.8970985412598

> <r_i_glide_ecoul>
-14.0670757293701

> <r_i_glide_erotb>
1.15625335850668

> <r_i_glide_esite>
-0.194056699043884

> <r_i_glide_emodel>
-63.5020570920181

> <r_i_glide_energy>
-39.9641742706299

> <r_i_glide_einternal>
2.78923082351685

> <i_i_glide_confnum>
33

> <i_i_glide_posenum>
33

> <r_i_glide_eff_state_penalty>
0

> <s_user_duplicate_titles>
CHEMBL3192_lig715

> <s_m_subgroup_title>
dock_pv

> <s_m_subgroupid>
dock_pv

> <b_m_subgroup_collapsed>
1

$$$$
CHEMBL3192_lig125
                    3D
 Schrodinger Suite 2021-1.
 37 39  0  0  1  0            999 V2000
  -21.7309   31.6690  -42.4140 C   0  0  0  0  0  0
  -21.1107   31.8688  -41.1808 C   0  0  0  0  0  0
  -21.8759   31.9464  -40.0176 C   0  0  0  0  0  0
  -23.2636   31.8214  -40.0813 C   0  0  0  0  0  0
  -23.1205   31.5393  -42.4802 C   0  0  0  0  0  0
  -23.9000   31.6036  -41.3096 C   0  0  0  0  0  0
  -25.2868   31.5360  -41.4750 N   0  0  0  0  0  0
  -25.8098   30.7057  -42.5965 C   0  0  0  0  0  0
  -24.9790   30.8557  -43.9083 C   0  0  0  0  0  0
  -23.7309   31.3198  -43.7155 N   0  0  0  0  0  0
  -26.2908   31.7997  -40.4290 C   0  0  0  0  0  0
  -27.0871   30.5808  -39.9671 C   0  0  0  0  0  0
  -28.3677   30.3820  -40.4757 C   0  0  0  0  0  0
  -29.1027   29.2690  -40.0948 C   0  0  0  0  0  0
  -28.5871   28.3415  -39.1809 C   0  0  0  0  0  0
  -27.3061   28.5568  -38.6623 C   0  0  0  0  0  0
  -26.5560   29.6689  -39.0531 C   0  0  0  0  0  0
  -25.3695   30.4744  -45.0080 O   0  0  0  0  0  0
  -29.4130   27.1378  -38.7814 C   0  0  0  0  0  0
  -29.4251   26.7854  -37.4949 N   0  0  0  0  0  0
  -30.1985   26.6098  -39.5810 O   0  0  0  0  0  0
  -30.2130   25.6821  -37.1102 O   0  0  0  0  0  0
  -21.1278   31.6113  -43.3095 H   0  0  0  0  0  0
  -20.0367   31.9720  -41.1261 H   0  0  0  0  0  0
  -21.4002   32.1221  -39.0630 H   0  0  0  0  0  0
  -23.8252   31.9064  -39.1645 H   0  0  0  0  0  0
  -26.8359   30.9787  -42.8469 H   0  0  0  0  0  0
  -25.8127   29.6498  -42.3221 H   0  0  0  0  0  0
  -23.1716   31.3505  -44.5542 H   0  0  0  0  0  0
  -26.9762   32.5535  -40.8185 H   0  0  0  0  0  0
  -25.8467   32.2851  -39.5605 H   0  0  0  0  0  0
  -28.7902   31.0804  -41.1812 H   0  0  0  0  0  0
  -30.0875   29.1425  -40.5196 H   0  0  0  0  0  0
  -26.8784   27.8529  -37.9664 H   0  0  0  0  0  0
  -25.5608   29.8136  -38.6572 H   0  0  0  0  0  0
  -29.0130   27.2650  -36.6998 H   0  0  0  0  0  0
  -29.5715   24.9785  -36.9634 H   0  0  0  0  0  0
  1  2  2  0  0  0
  1  5  1  0  0  0
  1 23  1  0  0  0
  2  3  1  0  0  0
  2 24  1  0  0  0
  3  4  2  0  0  0
  3 25  1  0  0  0
  4  6  1  0  0  0
  4 26  1  0  0  0
  5  6  2  0  0  0
  5 10  1  0  0  0
  6  7  1  0  0  0
  7 11  1  0  0  0
  7  8  1  0  0  0
  8  9  1  0  0  0
  8 27  1  0  0  0
  8 28  1  0  0  0
  9 18  2  0  0  0
  9 10  1  0  0  0
 10 29  1  0  0  0
 11 12  1  0  0  0
 11 30  1  0  0  0
 11 31  1  0  0  0
 12 13  2  0  0  0
 12 17  1  0  0  0
 13 14  1  0  0  0
 13 32  1  0  0  0
 14 15  2  0  0  0
 14 33  1  0  0  0
 15 16  1  0  0  0
 15 19  1  0  0  0
 16 17  2  0  0  0
 16 34  1  0  0  0
 17 35  1  0  0  0
 19 20  1  0  0  0
 19 21  2  0  0  0
 20 22  1  0  0  0
 20 36  1  0  0  0
 22 37  1  0  0  0
M  END
> <s_m_entry_id>
52829

> <s_m_entry_name>
dock_pv.48

> <s_m_Source_Path>
/home/csk/Desktop/cluster/DUD-E-result/hdac8

> <s_m_Source_File>
dock_pv.maegz

> <i_m_Source_File_Index>
48

> <chembl_id>
CHEMBL481802

> <chembl_pref_name>
None

> <i_lp_mmshare_version>
53161

> <i_f3d_flags>
0

> <r_lp_tautomer_probability>
1

> <s_lp_Force_Field>
OPLS_2005

> <r_lp_Energy>
31.511955

> <b_lp_Chiralities_Consistent>
1

> <s_lp_Variant>
CHEMBL3192_lig125-1

> <s_i_glide_gridfile>
glide-grid_3f07

> <i_i_glide_lignum>
134

> <i_i_glide_rotatable_bonds>
5

> <r_i_docking_score>
-8.25477416541068

> <r_i_glide_ligand_efficiency>
-0.375217007518667

> <r_i_glide_ligand_efficiency_sa>
-1.05137281151484

> <r_i_glide_ligand_efficiency_ln>
-2.01776790622996

> <r_i_glide_gscore>
-8.25477416541068

> <r_i_glide_lipo>
-1.10977550141017

> <r_i_glide_hbond>
-0.608

> <r_i_glide_metal>
-2.3

> <r_i_glide_rewards>
-1.67120171782767

> <r_i_glide_evdw>
-22.3732089996338

> <r_i_glide_ecoul>
-13.7869272232056

> <r_i_glide_erotb>
0.829641824862561

> <r_i_glide_esite>
-0.208739237572867

> <r_i_glide_emodel>
-56.0169503620254

> <r_i_glide_energy>
-36.1601362228394

> <r_i_glide_einternal>
5.60436916351318

> <i_i_glide_confnum>
12

> <i_i_glide_posenum>
8

> <r_i_glide_eff_state_penalty>
0

> <s_user_duplicate_titles>
CHEMBL3192_lig125,473680

> <s_m_subgroup_title>
dock_pv

> <s_m_subgroupid>
dock_pv

> <b_m_subgroup_collapsed>
1

$$$$
CHEMBL3192_lig196
                    3D
 Schrodinger Suite 2021-1.
 47 49  0  0  1  0            999 V2000
  -26.9856   28.8638  -38.6684 C   0  0  0  0  0  0
  -28.2068   28.9347  -39.3412 C   0  0  0  0  0  0
  -28.4135   29.9989  -40.2168 C   0  0  0  0  0  0
  -25.9813   29.7910  -38.9096 C   0  0  0  0  0  0
  -26.1724   30.8320  -39.8125 C   0  0  0  0  0  0
  -27.4244   30.9647  -40.4437 C   0  0  0  0  0  0
  -25.2900   32.6998  -41.3643 C   0  0  2  0  0  0
  -25.0426   31.8205  -40.1033 C   0  0  0  0  0  0
  -26.6826   33.1888  -41.3293 N   0  0  2  0  0  0
  -27.6733   32.1138  -41.4102 C   0  0  0  0  0  0
  -24.9551   31.9734  -42.7085 C   0  0  0  0  0  0
  -24.4079   30.8690  -42.7060 O   0  0  0  0  0  0
  -25.3214   32.6103  -43.8418 N   0  0  0  0  0  0
  -25.2145   32.1210  -45.1524 C   0  0  0  0  0  0
  -24.0001   31.7290  -45.7597 C   0  0  0  0  0  0
  -24.0152   31.3044  -47.0932 C   0  0  0  0  0  0
  -25.2067   31.2690  -47.8177 C   0  0  0  0  0  0
  -26.4011   31.6571  -47.2163 C   0  0  0  0  0  0
  -26.4024   32.0880  -45.8914 C   0  0  0  0  0  0
  -24.6125   33.5553  -41.3475 H   0  0  0  0  0  0
  -29.2134   27.9982  -39.2103 O   0  0  0  0  0  0
  -29.2066   27.1479  -38.0591 C   0  0  0  0  0  0
  -30.3082   26.0941  -38.1667 C   0  0  0  0  0  0
  -31.0130   26.0690  -39.1810 O   0  0  0  0  0  0
  -30.4456   25.2690  -37.1162 N   0  0  0  0  0  0
  -31.4130   24.2555  -37.1817 O   0  0  0  0  0  0
  -22.6520   31.8125  -45.0523 C   0  0  0  0  0  0
  -26.7621   28.0688  -37.9809 H   0  0  0  0  0  0
  -29.3581   30.0690  -40.7354 H   0  0  0  0  0  0
  -25.0319   29.6861  -38.4039 H   0  0  0  0  0  0
  -24.9634   32.4690  -39.2347 H   0  0  0  0  0  0
  -24.0842   31.3015  -40.1609 H   0  0  0  0  0  0
  -26.8538   33.9288  -41.9942 H   0  0  0  0  0  0
  -27.7178   31.7080  -42.4205 H   0  0  0  0  0  0
  -28.6408   32.5582  -41.1810 H   0  0  0  0  0  0
  -25.8744   33.4444  -43.7354 H   0  0  0  0  0  0
  -23.0951   31.0108  -47.5779 H   0  0  0  0  0  0
  -25.2032   30.9444  -48.8476 H   0  0  0  0  0  0
  -27.3244   31.6294  -47.7775 H   0  0  0  0  0  0
  -27.3375   32.3909  -45.4420 H   0  0  0  0  0  0
  -29.4120   27.7580  -37.1810 H   0  0  0  0  0  0
  -28.2620   26.6184  -37.9811 H   0  0  0  0  0  0
  -29.8888   25.2361  -36.2718 H   0  0  0  0  0  0
  -30.8962   23.4580  -37.3557 H   0  0  0  0  0  0
  -21.8414   31.9792  -45.7630 H   0  0  0  0  0  0
  -22.6202   32.6508  -44.3564 H   0  0  0  0  0  0
  -22.4433   30.8925  -44.5060 H   0  0  0  0  0  0
  1  4  1  0  0  0
  1  2  2  0  0  0
  1 28  1  0  0  0
  2  3  1  0  0  0
  2 21  1  0  0  0
  3  6  2  0  0  0
  3 29  1  0  0  0
  4  5  2  0  0  0
  4 30  1  0  0  0
  5  8  1  0  0  0
  5  6  1  0  0  0
  6 10  1  0  0  0
  7  8  1  0  0  0
  7 20  1  0  0  0
  7  9  1  0  0  0
  7 11  1  0  0  0
  8 31  1  0  0  0
  8 32  1  0  0  0
  9 10  1  0  0  0
  9 33  1  0  0  0
 10 34  1  0  0  0
 10 35  1  0  0  0
 11 12  2  0  0  0
 11 13  1  0  0  0
 13 14  1  0  0  0
 13 36  1  0  0  0
 14 15  2  0  0  0
 14 19  1  0  0  0
 15 16  1  0  0  0
 15 27  1  0  0  0
 16 17  2  0  0  0
 16 37  1  0  0  0
 17 18  1  0  0  0
 17 38  1  0  0  0
 18 19  2  0  0  0
 18 39  1  0  0  0
 19 40  1  0  0  0
 21 22  1  0  0  0
 22 23  1  0  0  0
 22 41  1  0  0  0
 22 42  1  0  0  0
 23 24  2  0  0  0
 23 25  1  0  0  0
 25 26  1  0  0  0
 25 43  1  0  0  0
 26 44  1  0  0  0
 27 45  1  0  0  0
 27 46  1  0  0  0
 27 47  1  0  0  0
M  END
> <s_m_entry_id>
52830

> <s_m_entry_name>
dock_pv.49

> <s_m_Source_Path>
/home/csk/Desktop/cluster/DUD-E-result/hdac8

> <s_m_Source_File>
dock_pv.maegz

> <i_m_Source_File_Index>
49

> <chembl_id>
CHEMBL599462

> <chembl_pref_name>
None

> <i_lp_mmshare_version>
53161

> <i_f3d_flags>
0

> <r_lp_tautomer_probability>
1

> <s_lp_Force_Field>
OPLS_2005

> <r_lp_Energy>
42.630018

> <b_lp_Chiralities_Consistent>
1

> <s_lp_Variant>
CHEMBL3192_lig196-1

> <s_i_glide_gridfile>
glide-grid_3f07

> <i_i_glide_lignum>
206

> <i_i_glide_rotatable_bonds>
8

> <r_i_docking_score>
-8.24490033571587

> <r_i_glide_ligand_efficiency>
-0.317111551373687

> <r_i_glide_ligand_efficiency_sa>
-0.939441723170846

> <r_i_glide_ligand_efficiency_ln>
-1.93628779011827

> <r_i_glide_gscore>
-8.24490033571587

> <r_i_glide_lipo>
-1.2368246090451

> <r_i_glide_hbond>
-0.414459513691773

> <r_i_glide_metal>
-2.3

> <r_i_glide_rewards>
-1.15307253843721

> <r_i_glide_evdw>
-32.8885841369629

> <r_i_glide_ecoul>
-16.3651371002197

> <r_i_glide_erotb>
1.05969369027529

> <r_i_glide_esite>
-0.101037592935973

> <r_i_glide_emodel>
-76.2369546050201

> <r_i_glide_energy>
-49.2537212371826

> <r_i_glide_einternal>
6.56354570388794

> <i_i_glide_confnum>
53

> <i_i_glide_posenum>
300

> <r_i_glide_eff_state_penalty>
0

> <s_user_duplicate_titles>
CHEMBL3192_lig196

> <s_m_subgroup_title>
dock_pv

> <s_m_subgroupid>
dock_pv

> <b_m_subgroup_collapsed>
1

$$$$
CHEMBL3192_lig556
                    3D
 Schrodinger Suite 2021-1.
 37 38  0  0  1  0            999 V2000
  -28.2382   30.3427  -40.6378 C   0  0  0  0  0  0
  -29.0140   29.2690  -40.2075 C   0  0  0  0  0  0
  -28.5482   28.3740  -39.2313 C   0  0  0  0  0  0
  -27.2705   28.5935  -38.6949 C   0  0  0  0  0  0
  -29.4130   27.2044  -38.8052 C   0  0  0  0  0  0
  -29.4130   26.8690  -37.5184 N   0  0  0  0  0  0
  -30.2130   26.6788  -39.5810 O   0  0  0  0  0  0
  -30.2130   25.7890  -37.0927 O   0  0  0  0  0  0
  -26.9723   30.5374  -40.0992 C   0  0  0  0  0  0
  -26.4872   29.6690  -39.1343 C   0  0  0  0  0  0
  -25.0914   30.0926  -38.7387 C   0  0  0  0  0  0
  -24.7567   31.1300  -39.7233 N   0  0  0  0  0  0
  -25.9560   31.6072  -40.4055 C   0  0  0  0  0  0
  -23.4684   31.4933  -39.9806 C   0  0  0  0  0  0
  -23.0899   32.6166  -41.0175 C   0  0  0  0  0  0
  -22.5485   30.8690  -39.4438 O   0  0  0  0  0  0
  -21.6626   33.1523  -40.6952 C   0  0  0  0  0  0
  -24.0339   33.8520  -40.9972 C   0  0  0  0  0  0
  -23.0347   32.0086  -42.4407 C   0  0  0  0  0  0
  -28.6191   31.0048  -41.3989 H   0  0  0  0  0  0
  -29.9909   29.1431  -40.6509 H   0  0  0  0  0  0
  -26.8779   27.9117  -37.9581 H   0  0  0  0  0  0
  -28.8341   27.2651  -36.7811 H   0  0  0  0  0  0
  -29.5822   25.0784  -36.9346 H   0  0  0  0  0  0
  -24.3770   29.2691  -38.7689 H   0  0  0  0  0  0
  -25.0546   30.5204  -37.7370 H   0  0  0  0  0  0
  -26.2583   32.5768  -40.0075 H   0  0  0  0  0  0
  -25.7969   31.7082  -41.4779 H   0  0  0  0  0  0
  -21.3452   33.9174  -41.4051 H   0  0  0  0  0  0
  -20.9050   32.3672  -40.7284 H   0  0  0  0  0  0
  -21.6186   33.6006  -39.7003 H   0  0  0  0  0  0
  -24.9466   33.7067  -41.5719 H   0  0  0  0  0  0
  -24.3113   34.1342  -39.9810 H   0  0  0  0  0  0
  -23.5573   34.7290  -41.4374 H   0  0  0  0  0  0
  -24.0024   31.6277  -42.7666 H   0  0  0  0  0  0
  -22.7207   32.7502  -43.1767 H   0  0  0  0  0  0
  -22.3245   31.1833  -42.5014 H   0  0  0  0  0  0
  1  9  1  0  0  0
  1  2  2  0  0  0
  1 20  1  0  0  0
  2  3  1  0  0  0
  2 21  1  0  0  0
  3  4  2  0  0  0
  3  5  1  0  0  0
  4 10  1  0  0  0
  4 22  1  0  0  0
  5  6  1  0  0  0
  5  7  2  0  0  0
  6  8  1  0  0  0
  6 23  1  0  0  0
  8 24  1  0  0  0
  9 10  2  0  0  0
  9 13  1  0  0  0
 10 11  1  0  0  0
 11 12  1  0  0  0
 11 25  1  0  0  0
 11 26  1  0  0  0
 12 13  1  0  0  0
 12 14  1  0  0  0
 13 27  1  0  0  0
 13 28  1  0  0  0
 14 15  1  0  0  0
 14 16  2  0  0  0
 15 17  1  0  0  0
 15 18  1  0  0  0
 15 19  1  0  0  0
 17 29  1  0  0  0
 17 30  1  0  0  0
 17 31  1  0  0  0
 18 32  1  0  0  0
 18 33  1  0  0  0
 18 34  1  0  0  0
 19 35  1  0  0  0
 19 36  1  0  0  0
 19 37  1  0  0  0
M  END
> <s_m_entry_id>
52831

> <s_m_entry_name>
dock_pv.50

> <s_m_Source_Path>
/home/csk/Desktop/cluster/DUD-E-result/hdac8

> <s_m_Source_File>
dock_pv.maegz

> <i_m_Source_File_Index>
50

> <chembl_id>
CHEMBL2431907

> <chembl_pref_name>
None

> <i_lp_mmshare_version>
53161

> <i_f3d_flags>
0

> <r_lp_tautomer_probability>
1

> <s_lp_Force_Field>
OPLS_2005

> <r_lp_Energy>
42.002645

> <b_lp_Chiralities_Consistent>
1

> <s_lp_Variant>
CHEMBL3192_lig556-1

> <s_i_glide_gridfile>
glide-grid_3f07

> <i_i_glide_lignum>
577

> <i_i_glide_rotatable_bonds>
5

> <r_i_docking_score>
-8.23481818577745

> <r_i_glide_ligand_efficiency>
-0.433411483461971

> <r_i_glide_ligand_efficiency_sa>
-1.15651591590985

> <r_i_glide_ligand_efficiency_ln>
-2.08770327777201

> <r_i_glide_gscore>
-8.23481818577745

> <r_i_glide_lipo>
-1.08674155572073

> <r_i_glide_hbond>
-0.608

> <r_i_glide_metal>
-2.3

> <r_i_glide_rewards>
-1.94637868496185

> <r_i_glide_evdw>
-18.5287227630615

> <r_i_glide_ecoul>
-12.6742372512817

> <r_i_glide_erotb>
0.77340750737725

> <r_i_glide_esite>
-0.239533726626779

> <r_i_glide_emodel>
-47.0678120134083

> <r_i_glide_energy>
-31.2029600143433

> <r_i_glide_einternal>
1.75805473327637

> <i_i_glide_confnum>
1

> <i_i_glide_posenum>
57

> <r_i_glide_eff_state_penalty>
0

> <s_user_duplicate_titles>
CHEMBL3192_lig556

> <s_m_subgroup_title>
dock_pv

> <s_m_subgroupid>
dock_pv

> <b_m_subgroup_collapsed>
1

$$$$
CHEMBL3192_lig135
                    3D
 Schrodinger Suite 2021-1.
 45 47  0  0  1  0            999 V2000
  -23.8030   30.8668  -38.4179 O   0  0  0  0  0  0
  -22.4885   31.4291  -40.3537 C   0  0  0  0  0  0
  -23.8134   31.2733  -39.5810 C   0  0  0  0  0  0
  -24.9369   31.6551  -40.2596 N   0  0  0  0  0  0
  -24.9457   31.9956  -41.7075 C   0  0  1  0  0  0
  -23.6063   32.4841  -42.3237 C   0  0  0  0  0  0
  -22.5077   32.1436  -41.6372 N   0  0  0  0  0  0
  -26.2204   31.7113  -39.5321 C   0  0  0  0  0  0
  -27.0139   30.4105  -39.4504 C   0  0  0  0  0  0
  -28.2048   30.2450  -40.1613 C   0  0  0  0  0  0
  -28.9732   29.0957  -39.9755 C   0  0  0  0  0  0
  -28.5748   28.1165  -39.0472 C   0  0  0  0  0  0
  -27.3674   28.2778  -38.3814 C   0  0  0  0  0  0
  -26.6017   29.4153  -38.5718 C   0  0  0  0  0  0
  -23.5226   33.1592  -43.3466 O   0  0  0  0  0  0
  -29.4367   26.9175  -38.7411 C   0  0  0  0  0  0
  -29.4823   26.4698  -37.4826 N   0  0  0  0  0  0
  -30.2113   26.4706  -39.5809 O   0  0  0  0  0  0
  -30.2205   25.2973  -37.2253 O   0  0  0  0  0  0
  -25.5970   30.9273  -42.6368 C   0  0  0  0  0  0
  -26.0486   31.4253  -44.0089 C   0  0  0  0  0  0
  -26.9779   32.4660  -44.1097 C   0  0  0  0  0  0
  -27.4058   32.9017  -45.3610 C   0  0  0  0  0  0
  -26.9004   32.2997  -46.5099 C   0  0  0  0  0  0
  -25.9681   31.2687  -46.4185 C   0  0  0  0  0  0
  -25.5449   30.8270  -45.1671 C   0  0  0  0  0  0
  -21.8308   31.9967  -39.6933 H   0  0  0  0  0  0
  -22.0115   30.4573  -40.4503 H   0  0  0  0  0  0
  -25.5620   32.8924  -41.7733 H   0  0  0  0  0  0
  -21.6286   32.4209  -42.0495 H   0  0  0  0  0  0
  -26.8467   32.4726  -39.9962 H   0  0  0  0  0  0
  -26.0601   32.0684  -38.5122 H   0  0  0  0  0  0
  -28.5436   31.0087  -40.8455 H   0  0  0  0  0  0
  -29.8994   29.0000  -40.5218 H   0  0  0  0  0  0
  -27.0141   27.5369  -37.6778 H   0  0  0  0  0  0
  -25.6983   29.5189  -37.9954 H   0  0  0  0  0  0
  -29.0100   26.8350  -36.6634 H   0  0  0  0  0  0
  -29.5501   24.6054  -37.1716 H   0  0  0  0  0  0
  -24.9365   30.0678  -42.7422 H   0  0  0  0  0  0
  -26.4897   30.5233  -42.1674 H   0  0  0  0  0  0
  -27.3757   32.9336  -43.2224 H   0  0  0  0  0  0
  -28.1268   33.7022  -45.4410 H   0  0  0  0  0  0
  -27.2321   32.6377  -47.4808 H   0  0  0  0  0  0
  -25.5771   30.8150  -47.3164 H   0  0  0  0  0  0
  -24.8258   30.0240  -45.1019 H   0  0  0  0  0  0
  1  3  2  0  0  0
  2  3  1  0  0  0
  2  7  1  0  0  0
  2 27  1  0  0  0
  2 28  1  0  0  0
  3  4  1  0  0  0
  4  8  1  0  0  0
  4  5  1  0  0  0
  5  6  1  0  0  0
  5 20  1  0  0  0
  5 29  1  0  0  0
  6  7  1  0  0  0
  6 15  2  0  0  0
  7 30  1  0  0  0
  8  9  1  0  0  0
  8 31  1  0  0  0
  8 32  1  0  0  0
  9 14  1  0  0  0
  9 10  2  0  0  0
 10 11  1  0  0  0
 10 33  1  0  0  0
 11 12  2  0  0  0
 11 34  1  0  0  0
 12 13  1  0  0  0
 12 16  1  0  0  0
 13 14  2  0  0  0
 13 35  1  0  0  0
 14 36  1  0  0  0
 16 17  1  0  0  0
 16 18  2  0  0  0
 17 19  1  0  0  0
 17 37  1  0  0  0
 19 38  1  0  0  0
 20 21  1  0  0  0
 20 39  1  0  0  0
 20 40  1  0  0  0
 21 22  2  0  0  0
 21 26  1  0  0  0
 22 23  1  0  0  0
 22 41  1  0  0  0
 23 24  2  0  0  0
 23 42  1  0  0  0
 24 25  1  0  0  0
 24 43  1  0  0  0
 25 26  2  0  0  0
 25 44  1  0  0  0
 26 45  1  0  0  0
M  END
> <s_m_entry_id>
52832

> <s_m_entry_name>
dock_pv.51

> <s_m_Source_Path>
/home/csk/Desktop/cluster/DUD-E-result/hdac8

> <s_m_Source_File>
dock_pv.maegz

> <i_m_Source_File_Index>
51

> <chembl_id>
CHEMBL481718

> <chembl_pref_name>
None

> <i_lp_mmshare_version>
53161

> <i_f3d_flags>
0

> <r_lp_tautomer_probability>
1

> <s_lp_Force_Field>
OPLS_2005

> <r_lp_Energy>
32.003413

> <b_lp_Chiralities_Consistent>
1

> <s_lp_Variant>
CHEMBL3192_lig135-1

> <s_i_glide_gridfile>
glide-grid_3f07

> <i_i_glide_lignum>
144

> <i_i_glide_rotatable_bonds>
7

> <r_i_docking_score>
-8.23414526150785

> <r_i_glide_ligand_efficiency>
-0.316697894673379

> <r_i_glide_ligand_efficiency_sa>
-0.938216266823843

> <r_i_glide_ligand_efficiency_ln>
-1.93376199623079

> <r_i_glide_gscore>
-8.23414526150785

> <r_i_glide_lipo>
-1.58674141590179

> <r_i_glide_hbond>
-0.605123633608579

> <r_i_glide_metal>
-2.3

> <r_i_glide_rewards>
-1.25080433797423

> <r_i_glide_evdw>
-25.4572582244873

> <r_i_glide_ecoul>
-12.4360752105713

> <r_i_glide_erotb>
0.917552264893855

> <r_i_glide_esite>
-0.27075394610704

> <r_i_glide_emodel>
-53.3584945837698

> <r_i_glide_energy>
-37.8933334350586

> <r_i_glide_einternal>
7.05074834823608

> <i_i_glide_confnum>
30

> <i_i_glide_posenum>
106

> <r_i_glide_eff_state_penalty>
0

> <s_user_duplicate_titles>
CHEMBL3192_lig135

> <s_m_subgroup_title>
dock_pv

> <s_m_subgroupid>
dock_pv

> <b_m_subgroup_collapsed>
1

$$$$
CHEMBL3192_lig558
                    3D
 Schrodinger Suite 2021-1.
 42 44  0  0  1  0            999 V2000
  -28.6246   30.5617  -40.5195 C   0  0  0  0  0  0
  -29.2365   29.3685  -40.1781 C   0  0  0  0  0  0
  -28.6384   28.4848  -39.2761 C   0  0  0  0  0  0
  -27.3698   28.8176  -38.7734 C   0  0  0  0  0  0
  -29.4102   27.2524  -38.8437 C   0  0  0  0  0  0
  -29.2994   26.8690  -37.5810 N   0  0  0  0  0  0
  -30.2305   26.7133  -39.5810 O   0  0  0  0  0  0
  -30.2130   25.9194  -37.0736 O   0  0  0  0  0  0
  -26.7642   32.2380  -40.4016 C   0  0  0  0  0  0
  -27.3739   30.8989  -40.0161 C   0  0  0  0  0  0
  -26.7182   30.0146  -39.1335 C   0  0  0  0  0  0
  -25.5119   32.1371  -41.1563 N   0  0  0  0  0  0
  -24.3477   32.1098  -40.2741 C   0  0  0  0  0  0
  -24.2072   30.7624  -39.5363 C   0  0  0  0  0  0
  -25.3415   30.3750  -38.5530 C   0  0  0  0  0  0
  -25.5451   32.0377  -42.5211 C   0  0  0  0  0  0
  -24.3101   31.8570  -43.2890 C   0  0  0  0  0  0
  -26.6130   32.1132  -43.1337 O   0  0  0  0  0  0
  -23.0958   31.2691  -42.9134 C   0  0  0  0  0  0
  -22.2154   31.2690  -43.9850 C   0  0  0  0  0  0
  -22.9076   31.7896  -45.0536 C   0  0  0  0  0  0
  -24.1808   32.1259  -44.6527 N   0  0  0  0  0  0
  -25.1652   32.7281  -45.5471 C   0  0  0  0  0  0
  -29.1356   31.2405  -41.1810 H   0  0  0  0  0  0
  -30.2126   29.1669  -40.5955 H   0  0  0  0  0  0
  -26.8829   28.1485  -38.0781 H   0  0  0  0  0  0
  -28.7101   27.2786  -36.8578 H   0  0  0  0  0  0
  -30.7670   26.4280  -36.4731 H   0  0  0  0  0  0
  -26.5982   32.8118  -39.4873 H   0  0  0  0  0  0
  -27.4785   32.8595  -40.9439 H   0  0  0  0  0  0
  -23.4294   32.4023  -40.7757 H   0  0  0  0  0  0
  -24.4596   32.9380  -39.5810 H   0  0  0  0  0  0
  -23.2736   30.7934  -38.9731 H   0  0  0  0  0  0
  -24.0832   29.9678  -40.2676 H   0  0  0  0  0  0
  -25.4830   31.1653  -37.8147 H   0  0  0  0  0  0
  -24.9845   29.5183  -37.9810 H   0  0  0  0  0  0
  -22.8388   30.8690  -41.9478 H   0  0  0  0  0  0
  -21.1969   30.9043  -43.9810 H   0  0  0  0  0  0
  -22.5959   31.9501  -46.0752 H   0  0  0  0  0  0
  -24.7007   33.0023  -46.4947 H   0  0  0  0  0  0
  -25.9573   32.0058  -45.7459 H   0  0  0  0  0  0
  -25.5816   33.6246  -45.0871 H   0  0  0  0  0  0
  1 10  1  0  0  0
  1  2  2  0  0  0
  1 24  1  0  0  0
  2  3  1  0  0  0
  2 25  1  0  0  0
  3  4  2  0  0  0
  3  5  1  0  0  0
  4 11  1  0  0  0
  4 26  1  0  0  0
  5  6  1  0  0  0
  5  7  2  0  0  0
  6  8  1  0  0  0
  6 27  1  0  0  0
  8 28  1  0  0  0
  9 10  1  0  0  0
  9 12  1  0  0  0
  9 29  1  0  0  0
  9 30  1  0  0  0
 10 11  2  0  0  0
 11 15  1  0  0  0
 12 13  1  0  0  0
 12 16  1  0  0  0
 13 14  1  0  0  0
 13 31  1  0  0  0
 13 32  1  0  0  0
 14 15  1  0  0  0
 14 33  1  0  0  0
 14 34  1  0  0  0
 15 35  1  0  0  0
 15 36  1  0  0  0
 16 17  1  0  0  0
 16 18  2  0  0  0
 17 19  2  0  0  0
 17 22  1  0  0  0
 19 20  1  0  0  0
 19 37  1  0  0  0
 20 21  2  0  0  0
 20 38  1  0  0  0
 21 22  1  0  0  0
 21 39  1  0  0  0
 22 23  1  0  0  0
 23 40  1  0  0  0
 23 41  1  0  0  0
 23 42  1  0  0  0
M  END
> <s_m_entry_id>
52833

> <s_m_entry_name>
dock_pv.52

> <s_m_Source_Path>
/home/csk/Desktop/cluster/DUD-E-result/hdac8

> <s_m_Source_File>
dock_pv.maegz

> <i_m_Source_File_Index>
52

> <chembl_id>
CHEMBL2431912

> <chembl_pref_name>
None

> <i_lp_mmshare_version>
53161

> <i_f3d_flags>
0

> <r_lp_tautomer_probability>
1

> <s_lp_Force_Field>
OPLS_2005

> <r_lp_Energy>
36.707305

> <b_lp_Chiralities_Consistent>
1

> <s_lp_Variant>
CHEMBL3192_lig558-1

> <s_i_glide_gridfile>
glide-grid_3f07

> <i_i_glide_lignum>
579

> <i_i_glide_rotatable_bonds>
5

> <r_i_docking_score>
-8.21102644189105

> <r_i_glide_ligand_efficiency>
-0.357001149647437

> <r_i_glide_ligand_efficiency_sa>
-1.01526378019028

> <r_i_glide_ligand_efficiency_ln>
-1.98550064712065

> <r_i_glide_gscore>
-8.21102644189105

> <r_i_glide_lipo>
-1.22169213762709

> <r_i_glide_hbond>
-0.608

> <r_i_glide_metal>
-2.3

> <r_i_glide_rewards>
-1.50981416166099

> <r_i_glide_evdw>
-20.4564151763916

> <r_i_glide_ecoul>
-13.8749361038208

> <r_i_glide_erotb>
0.756616576428121

> <r_i_glide_esite>
-0.224075544638389

> <r_i_glide_emodel>
-52.5949499601965

> <r_i_glide_energy>
-34.3313512802124

> <r_i_glide_einternal>
2.21732616424561

> <i_i_glide_confnum>
13

> <i_i_glide_posenum>
287

> <r_i_glide_eff_state_penalty>
0

> <s_user_duplicate_titles>
CHEMBL3192_lig558

> <s_m_subgroup_title>
dock_pv

> <s_m_subgroupid>
dock_pv

> <b_m_subgroup_collapsed>
1

$$$$
CHEMBL3192_lig76
                    3D
 Schrodinger Suite 2021-1.
 41 43  0  0  1  0            999 V2000
  -20.4486   31.5632  -38.3913 C   0  0  0  0  0  0
  -21.9107   31.2690  -38.7809 C   0  0  0  0  0  0
  -22.3523   31.8150  -39.9399 N   0  0  0  0  0  0
  -22.6045   30.5623  -38.0438 O   0  0  0  0  0  0
  -23.6334   31.6690  -40.4625 C   0  0  0  0  0  0
  -24.0315   32.4654  -41.9450 S   0  0  0  0  0  0
  -25.6288   31.7753  -41.8210 C   0  0  0  0  0  0
  -25.7259   30.9985  -40.6630 C   0  0  0  0  0  0
  -24.6147   30.9682  -39.9483 N   0  0  0  0  0  0
  -26.8987   30.2395  -40.2188 C   0  0  0  0  0  0
  -28.1604   30.1444  -40.7810 C   0  0  0  0  0  0
  -29.0130   29.2690  -40.0994 C   0  0  0  0  0  0
  -28.4386   28.6177  -39.0085 C   0  0  0  0  0  0
  -26.8481   29.2690  -38.7810 S   0  0  0  0  0  0
  -28.9626   27.6032  -37.9952 C   0  0  0  0  0  0
  -29.8936   26.4690  -38.4483 C   0  0  0  0  0  0
  -30.1909   25.5398  -37.5260 N   0  0  0  0  0  0
  -30.3828   26.4690  -39.5810 O   0  0  0  0  0  0
  -31.0130   24.4690  -37.9017 O   0  0  0  0  0  0
  -19.8803   30.5009  -37.6037 O   0  0  0  0  0  0
  -20.1350   30.3783  -36.2460 C   0  0  0  0  0  0
  -20.9219   31.2690  -35.4998 C   0  0  0  0  0  0
  -21.1162   31.0653  -34.1345 C   0  0  0  0  0  0
  -20.5262   29.9711  -33.5086 C   0  0  0  0  0  0
  -19.7475   29.0759  -34.2371 C   0  0  0  0  0  0
  -19.5537   29.2842  -35.6012 C   0  0  0  0  0  0
  -19.8419   31.6615  -39.2919 H   0  0  0  0  0  0
  -20.3802   32.5239  -37.8800 H   0  0  0  0  0  0
  -21.7237   32.4146  -40.4517 H   0  0  0  0  0  0
  -26.3767   31.9653  -42.5758 H   0  0  0  0  0  0
  -28.4524   30.6851  -41.6668 H   0  0  0  0  0  0
  -30.0275   29.0914  -40.4196 H   0  0  0  0  0  0
  -29.4528   28.1339  -37.1810 H   0  0  0  0  0  0
  -28.0923   27.1053  -37.5810 H   0  0  0  0  0  0
  -29.8395   25.4661  -36.5797 H   0  0  0  0  0  0
  -30.4088   23.7106  -37.9383 H   0  0  0  0  0  0
  -21.3972   32.1176  -35.9675 H   0  0  0  0  0  0
  -21.7225   31.7522  -33.5624 H   0  0  0  0  0  0
  -20.6752   29.8111  -32.4493 H   0  0  0  0  0  0
  -19.2934   28.2273  -33.7448 H   0  0  0  0  0  0
  -18.9473   28.5914  -36.1655 H   0  0  0  0  0  0
  1 20  1  0  0  0
  1  2  1  0  0  0
  1 27  1  0  0  0
  1 28  1  0  0  0
  2  4  2  0  0  0
  2  3  1  0  0  0
  3  5  1  0  0  0
  3 29  1  0  0  0
  5  6  1  0  0  0
  5  9  2  0  0  0
  6  7  1  0  0  0
  7  8  2  0  0  0
  7 30  1  0  0  0
  8 10  1  0  0  0
  8  9  1  0  0  0
 10 14  1  0  0  0
 10 11  2  0  0  0
 11 12  1  0  0  0
 11 31  1  0  0  0
 12 13  2  0  0  0
 12 32  1  0  0  0
 13 14  1  0  0  0
 13 15  1  0  0  0
 15 16  1  0  0  0
 15 33  1  0  0  0
 15 34  1  0  0  0
 16 17  1  0  0  0
 16 18  2  0  0  0
 17 19  1  0  0  0
 17 35  1  0  0  0
 19 36  1  0  0  0
 20 21  1  0  0  0
 21 22  2  0  0  0
 21 26  1  0  0  0
 22 23  1  0  0  0
 22 37  1  0  0  0
 23 24  2  0  0  0
 23 38  1  0  0  0
 24 25  1  0  0  0
 24 39  1  0  0  0
 25 26  2  0  0  0
 25 40  1  0  0  0
 26 41  1  0  0  0
M  END
> <s_m_entry_id>
52834

> <s_m_entry_name>
dock_pv.53

> <s_m_Source_Path>
/home/csk/Desktop/cluster/DUD-E-result/hdac8

> <s_m_Source_File>
dock_pv.maegz

> <i_m_Source_File_Index>
53

> <chembl_id>
CHEMBL270249

> <chembl_pref_name>
None

> <i_lp_mmshare_version>
53161

> <i_f3d_flags>
0

> <r_lp_tautomer_probability>
0.999000488399163

> <s_lp_Force_Field>
OPLS_2005

> <r_lp_Energy>
20.489113

> <b_lp_Chiralities_Consistent>
1

> <s_lp_Variant>
CHEMBL3192_lig76-1

> <s_i_glide_gridfile>
glide-grid_3f07

> <i_i_glide_lignum>
78

> <i_i_glide_rotatable_bonds>
10

> <r_i_docking_score>
-8.21010943992789

> <r_i_glide_ligand_efficiency>
-0.315773439997227

> <r_i_glide_ligand_efficiency_sa>
-0.935477573483296

> <r_i_glide_ligand_efficiency_ln>
-1.9281172624007

> <r_i_glide_gscore>
-8.21010943992789

> <r_i_glide_lipo>
-1.12689189959622

> <r_i_glide_hbond>
-0.304

> <r_i_glide_metal>
-2.3

> <r_i_glide_rewards>
-1.08164535603077

> <r_i_glide_evdw>
-32.3616333007812

> <r_i_glide_ecoul>
-17.0892524719238

> <r_i_glide_erotb>
1.02824031745766

> <r_i_glide_esite>
-0.244342965930927

> <r_i_glide_emodel>
-71.1012845213408

> <r_i_glide_energy>
-49.4508857727051

> <r_i_glide_einternal>
7.65151453018188

> <i_i_glide_confnum>
27

> <i_i_glide_posenum>
114

> <r_i_glide_eff_state_penalty>
0

> <s_user_duplicate_titles>
CHEMBL3192_lig76,439339

> <s_m_subgroup_title>
dock_pv

> <s_m_subgroupid>
dock_pv

> <b_m_subgroup_collapsed>
1

$$$$
CHEMBL3192_lig1004
                    3D
 Schrodinger Suite 2021-1.
 39 41  0  0  1  0            999 V2000
  -23.8546   31.2803  -42.6831 O   0  0  0  0  0  0
  -25.2598   30.8690  -42.7755 S   0  0  0  0  0  0
  -25.6637   29.7527  -43.6421 O   0  0  0  0  0  0
  -29.8130   26.4868  -38.6362 C   0  0  0  0  0  0
  -28.6785   27.3844  -38.6217 C   0  0  0  0  0  0
  -28.4975   28.3242  -39.5803 C   0  0  0  0  0  0
  -30.6130   26.4690  -39.5810 O   0  0  0  0  0  0
  -29.9428   25.7103  -37.5500 N   0  0  0  0  0  0
  -30.9961   24.7805  -37.5156 O   0  0  0  0  0  0
  -27.3669   29.2628  -39.6882 C   0  0  0  0  0  0
  -26.9501   29.6683  -40.9596 C   0  0  0  0  0  0
  -25.8190   30.4690  -41.1234 C   0  0  0  0  0  0
  -25.1275   30.9292  -40.0006 C   0  0  0  0  0  0
  -25.5574   30.5609  -38.7272 C   0  0  0  0  0  0
  -26.6627   29.7221  -38.5720 C   0  0  0  0  0  0
  -26.7748   32.2405  -44.4866 N   0  0  0  0  0  0
  -26.1976   32.3117  -43.2616 C   0  0  0  0  0  0
  -26.2960   33.4216  -42.4239 C   0  0  0  0  0  0
  -27.0508   34.5126  -42.8489 C   0  0  0  0  0  0
  -27.6909   34.4691  -44.1137 C   0  0  0  0  0  0
  -28.4889   35.5325  -44.6005 C   0  0  0  0  0  0
  -29.1009   35.4329  -45.8476 C   0  0  0  0  0  0
  -28.9310   34.2951  -46.6299 C   0  0  0  0  0  0
  -28.1504   33.2313  -46.1857 C   0  0  0  0  0  0
  -27.5186   33.2984  -44.9165 C   0  0  0  0  0  0
  -28.0112   32.1374  -46.9719 F   0  0  0  0  0  0
  -27.9672   27.2690  -37.8164 H   0  0  0  0  0  0
  -29.2359   28.4408  -40.3621 H   0  0  0  0  0  0
  -29.3414   25.6633  -36.7389 H   0  0  0  0  0  0
  -30.5484   23.9256  -37.5810 H   0  0  0  0  0  0
  -27.4792   29.3200  -41.8338 H   0  0  0  0  0  0
  -24.2555   31.5603  -40.1066 H   0  0  0  0  0  0
  -25.0211   30.9201  -37.8613 H   0  0  0  0  0  0
  -26.9787   29.4338  -37.5810 H   0  0  0  0  0  0
  -25.8001   33.4401  -41.4629 H   0  0  0  0  0  0
  -27.1506   35.3887  -42.2241 H   0  0  0  0  0  0
  -28.6205   36.4205  -43.9989 H   0  0  0  0  0  0
  -29.7116   36.2454  -46.2148 H   0  0  0  0  0  0
  -29.4130   34.2313  -47.5948 H   0  0  0  0  0  0
  1  2  2  0  0  0
  2  3  2  0  0  0
  2 17  1  0  0  0
  2 12  1  0  0  0
  4  5  1  0  0  0
  4  7  2  0  0  0
  4  8  1  0  0  0
  5  6  2  0  0  0
  5 27  1  0  0  0
  6 10  1  0  0  0
  6 28  1  0  0  0
  8  9  1  0  0  0
  8 29  1  0  0  0
  9 30  1  0  0  0
 10 11  1  0  0  0
 10 15  2  0  0  0
 11 12  2  0  0  0
 11 31  1  0  0  0
 12 13  1  0  0  0
 13 14  2  0  0  0
 13 32  1  0  0  0
 14 15  1  0  0  0
 14 33  1  0  0  0
 15 34  1  0  0  0
 16 17  2  0  0  0
 16 25  1  0  0  0
 17 18  1  0  0  0
 18 19  2  0  0  0
 18 35  1  0  0  0
 19 20  1  0  0  0
 19 36  1  0  0  0
 20 21  2  0  0  0
 20 25  1  0  0  0
 21 22  1  0  0  0
 21 37  1  0  0  0
 22 23  2  0  0  0
 22 38  1  0  0  0
 23 24  1  0  0  0
 23 39  1  0  0  0
 24 25  2  0  0  0
 24 26  1  0  0  0
M  END
> <s_m_entry_id>
52835

> <s_m_entry_name>
dock_pv.54

> <s_m_Source_Path>
/home/csk/Desktop/cluster/DUD-E-result/hdac8

> <s_m_Source_File>
dock_pv.maegz

> <i_m_Source_File_Index>
54

> <chembl_id>
CHEMBL3925939

> <chembl_pref_name>
None

> <i_lp_mmshare_version>
53161

> <i_f3d_flags>
0

> <r_lp_tautomer_probability>
1

> <s_lp_Force_Field>
OPLS_2005

> <r_lp_Energy>
23.832206

> <b_lp_Chiralities_Consistent>
1

> <s_lp_Variant>
CHEMBL3192_lig1004-1

> <s_i_glide_gridfile>
glide-grid_3f07

> <i_i_glide_lignum>
1066

> <i_i_glide_rotatable_bonds>
6

> <r_i_docking_score>
-8.19543316012276

> <r_i_glide_ligand_efficiency>
-0.315208967697029

> <r_i_glide_ligand_efficiency_sa>
-0.933805326515053

> <r_i_glide_ligand_efficiency_ln>
-1.92467058624527

> <r_i_glide_gscore>
-8.19543316012276

> <r_i_glide_lipo>
-1.26227969883654

> <r_i_glide_hbond>
-0.307189443461189

> <r_i_glide_metal>
-2.3

> <r_i_glide_rewards>
-1.05951156848481

> <r_i_glide_evdw>
-30.3630905151367

> <r_i_glide_ecoul>
-15.3176460266113

> <r_i_glide_erotb>
0.696428515519156

> <r_i_glide_esite>
-0.14707953511085

> <r_i_glide_emodel>
-73.1766960081027

> <r_i_glide_energy>
-45.680736541748

> <r_i_glide_einternal>
2.17439484596252

> <i_i_glide_confnum>
48

> <i_i_glide_posenum>
200

> <r_i_glide_eff_state_penalty>
0

> <s_user_duplicate_titles>
CHEMBL3192_lig1004

> <s_m_subgroup_title>
dock_pv

> <s_m_subgroupid>
dock_pv

> <b_m_subgroup_collapsed>
1

$$$$
CHEMBL3192_lig831
                    3D
 Schrodinger Suite 2021-1.
 49 51  0  0  1  0            999 V2000
  -31.2042   24.4690  -37.0121 O   0  0  0  0  0  0
  -30.2130   25.4555  -37.1434 N   0  0  0  0  0  0
  -30.1846   26.1835  -38.2712 C   0  0  0  0  0  0
  -31.0130   26.0690  -39.1810 O   0  0  0  0  0  0
  -29.1041   27.1431  -38.3475 C   0  0  0  0  0  0
  -29.0338   28.0891  -39.3144 C   0  0  0  0  0  0
  -27.9905   29.1181  -39.4944 C   0  0  0  0  0  0
  -26.7914   29.0847  -38.7753 C   0  0  0  0  0  0
  -25.7797   30.0312  -38.9436 C   0  0  0  0  0  0
  -26.0161   31.0418  -39.8769 C   0  0  0  0  0  0
  -27.2317   31.1279  -40.5920 C   0  0  0  0  0  0
  -28.2239   30.1545  -40.4073 C   0  0  0  0  0  0
  -27.2462   32.2294  -41.3992 N   0  0  0  0  0  0
  -26.0750   32.7946  -41.2257 C   0  0  0  0  0  0
  -25.6805   34.0707  -41.9555 C   0  0  0  0  0  0
  -24.9364   33.8372  -43.2889 C   0  0  0  0  0  0
  -25.6714   32.9299  -44.2674 C   0  0  0  0  0  0
  -26.6587   33.4572  -45.1045 C   0  0  0  0  0  0
  -27.3309   32.6246  -45.9957 C   0  0  0  0  0  0
  -27.0130   31.2690  -46.0453 C   0  0  0  0  0  0
  -26.0345   30.7363  -45.2075 C   0  0  0  0  0  0
  -25.3607   31.5682  -44.3188 C   0  0  0  0  0  0
  -25.2682   32.1123  -40.3281 N   0  0  0  0  0  0
  -23.9151   32.4457  -39.8794 C   0  0  0  0  0  0
  -22.8316   31.8138  -40.7827 C   0  0  0  0  0  0
  -21.4646   31.5315  -40.1378 C   0  0  0  0  0  0
  -20.6133   30.8690  -40.7244 O   0  0  0  0  0  0
  -21.2817   32.0690  -38.8954 O   0  0  0  0  0  0
  -30.7306   23.6451  -37.1807 H   0  0  0  0  0  0
  -29.5674   25.4838  -36.3658 H   0  0  0  0  0  0
  -28.3499   27.0807  -37.5810 H   0  0  0  0  0  0
  -29.8124   28.1260  -40.0616 H   0  0  0  0  0  0
  -26.6131   28.2892  -38.0680 H   0  0  0  0  0  0
  -24.8559   29.9632  -38.3868 H   0  0  0  0  0  0
  -29.1459   30.2102  -40.9670 H   0  0  0  0  0  0
  -26.5715   34.6652  -42.1628 H   0  0  0  0  0  0
  -25.0789   34.7132  -41.3128 H   0  0  0  0  0  0
  -24.7564   34.7973  -43.7754 H   0  0  0  0  0  0
  -23.9392   33.4407  -43.1080 H   0  0  0  0  0  0
  -26.9055   34.5082  -45.0642 H   0  0  0  0  0  0
  -28.0957   33.0265  -46.6444 H   0  0  0  0  0  0
  -27.5416   30.6251  -46.7332 H   0  0  0  0  0  0
  -25.8005   29.6827  -45.2431 H   0  0  0  0  0  0
  -24.6056   31.1554  -43.6655 H   0  0  0  0  0  0
  -23.8124   33.5304  -39.8298 H   0  0  0  0  0  0
  -23.8339   32.0691  -38.8578 H   0  0  0  0  0  0
  -23.1883   30.8690  -41.1922 H   0  0  0  0  0  0
  -22.6365   32.4665  -41.6306 H   0  0  0  0  0  0
  -21.9637   32.6746  -38.5708 H   0  0  0  0  0  0
  1  2  1  0  0  0
  1 29  1  0  0  0
  2  3  1  0  0  0
  2 30  1  0  0  0
  3  4  2  0  0  0
  3  5  1  0  0  0
  5  6  2  0  0  0
  5 31  1  0  0  0
  6  7  1  0  0  0
  6 32  1  0  0  0
  7  8  2  0  0  0
  7 12  1  0  0  0
  8  9  1  0  0  0
  8 33  1  0  0  0
  9 10  2  0  0  0
  9 34  1  0  0  0
 10 11  1  0  0  0
 10 23  1  0  0  0
 11 12  2  0  0  0
 11 13  1  0  0  0
 12 35  1  0  0  0
 13 14  2  0  0  0
 14 15  1  0  0  0
 14 23  1  0  0  0
 15 16  1  0  0  0
 15 36  1  0  0  0
 15 37  1  0  0  0
 16 17  1  0  0  0
 16 38  1  0  0  0
 16 39  1  0  0  0
 17 18  2  0  0  0
 17 22  1  0  0  0
 18 19  1  0  0  0
 18 40  1  0  0  0
 19 20  2  0  0  0
 19 41  1  0  0  0
 20 21  1  0  0  0
 20 42  1  0  0  0
 21 22  2  0  0  0
 21 43  1  0  0  0
 22 44  1  0  0  0
 23 24  1  0  0  0
 24 25  1  0  0  0
 24 45  1  0  0  0
 24 46  1  0  0  0
 25 26  1  0  0  0
 25 47  1  0  0  0
 25 48  1  0  0  0
 26 27  2  0  0  0
 26 28  1  0  0  0
 28 49  1  0  0  0
M  END
> <s_m_entry_id>
52836

> <s_m_entry_name>
dock_pv.55

> <s_m_Source_Path>
/home/csk/Desktop/cluster/DUD-E-result/hdac8

> <s_m_Source_File>
dock_pv.maegz

> <i_m_Source_File_Index>
55

> <chembl_id>
CHEMBL490722

> <chembl_pref_name>
None

> <i_lp_mmshare_version>
53161

> <i_f3d_flags>
0

> <r_lp_tautomer_probability>
1

> <s_lp_Force_Field>
OPLS_2005

> <r_lp_Energy>
28.375525

> <b_lp_Chiralities_Consistent>
1

> <s_lp_Variant>
CHEMBL3192_lig831-1

> <s_i_glide_gridfile>
glide-grid_3f07

> <i_i_glide_lignum>
886

> <i_i_glide_rotatable_bonds>
11

> <r_i_docking_score>
-8.18788516707772

> <r_i_glide_ligand_efficiency>
-0.292424470252776

> <r_i_glide_ligand_efficiency_sa>
-0.887972920489859

> <r_i_glide_ligand_efficiency_ln>
-1.89000430331637

> <r_i_glide_gscore>
-8.18788516707772

> <r_i_glide_lipo>
-1.39738287605279

> <r_i_glide_hbond>
-0.221794858655016

> <r_i_glide_metal>
-2.3

> <r_i_glide_rewards>
-1.06262369611737

> <r_i_glide_evdw>
-35.1794586181641

> <r_i_glide_ecoul>
-16.312047958374

> <r_i_glide_erotb>
1.21225642696457

> <r_i_glide_esite>
-0.21256003855281

> <r_i_glide_emodel>
-80.4992114217022

> <r_i_glide_energy>
-51.4915065765381

> <r_i_glide_einternal>
7.64607191085815

> <i_i_glide_confnum>
20

> <i_i_glide_posenum>
279

> <r_i_glide_eff_state_penalty>
0

> <s_user_duplicate_titles>
CHEMBL3192_lig831

> <s_m_subgroup_title>
dock_pv

> <s_m_subgroupid>
dock_pv

> <b_m_subgroup_collapsed>
1

$$$$
CHEMBL3192_lig212
                    3D
 Schrodinger Suite 2021-1.
 49 50  0  0  1  0            999 V2000
  -27.0132   28.8803  -38.5665 C   0  0  0  0  0  0
  -28.1692   28.9019  -39.3486 C   0  0  0  0  0  0
  -28.2857   29.8924  -40.3251 C   0  0  0  0  0  0
  -25.9904   29.7934  -38.7814 C   0  0  0  0  0  0
  -26.0969   30.7706  -39.7649 C   0  0  0  0  0  0
  -27.2738   30.8403  -40.5356 C   0  0  0  0  0  0
  -25.0442   32.5319  -41.3356 C   0  0  2  0  0  0
  -24.9493   31.7533  -39.9950 C   0  0  0  0  0  0
  -26.4288   32.9813  -41.5553 N   0  0  2  0  0  0
  -27.4131   31.8985  -41.6251 C   0  0  0  0  0  0
  -24.5369   31.6972  -42.5440 C   0  0  0  0  0  0
  -24.6128   30.4690  -42.5288 O   0  0  0  0  0  0
  -24.0586   32.3849  -43.5985 N   0  0  0  0  0  0
  -24.3913   33.4064  -41.2877 H   0  0  0  0  0  0
  -29.1951   27.9838  -39.2199 O   0  0  0  0  0  0
  -29.2090   27.1426  -38.0598 C   0  0  0  0  0  0
  -30.3108   26.0923  -38.1662 C   0  0  0  0  0  0
  -31.0130   26.0690  -39.1810 O   0  0  0  0  0  0
  -30.4486   25.2690  -37.1151 N   0  0  0  0  0  0
  -31.4130   24.2535  -37.1803 O   0  0  0  0  0  0
  -23.5249   31.8267  -44.8482 C   0  0  0  0  0  0
  -24.3167   30.6536  -45.4799 C   0  0  0  0  0  0
  -25.8414   30.8690  -45.6207 C   0  0  0  0  0  0
  -26.2408   31.6213  -46.9013 C   0  0  0  0  0  0
  -27.7624   31.7292  -47.0583 C   0  0  0  0  0  0
  -26.8667   28.1428  -37.7983 H   0  0  0  0  0  0
  -29.1751   29.9198  -40.9381 H   0  0  0  0  0  0
  -25.0923   29.7342  -38.1840 H   0  0  0  0  0  0
  -24.9838   32.4689  -39.1810 H   0  0  0  0  0  0
  -23.9867   31.2470  -39.8979 H   0  0  0  0  0  0
  -26.4981   33.5943  -42.3558 H   0  0  0  0  0  0
  -27.3954   31.4197  -42.6057 H   0  0  0  0  0  0
  -28.3774   32.3808  -41.5068 H   0  0  0  0  0  0
  -24.0353   33.3900  -43.5240 H   0  0  0  0  0  0
  -29.4127   27.7545  -37.1810 H   0  0  0  0  0  0
  -28.2695   26.6040  -37.9811 H   0  0  0  0  0  0
  -29.8925   25.2381  -36.2697 H   0  0  0  0  0  0
  -30.8942   23.4580  -37.3577 H   0  0  0  0  0  0
  -23.5110   32.6582  -45.5552 H   0  0  0  0  0  0
  -22.4865   31.5299  -44.6816 H   0  0  0  0  0  0
  -23.8821   30.4247  -46.4531 H   0  0  0  0  0  0
  -24.1429   29.7524  -44.8896 H   0  0  0  0  0  0
  -26.3344   29.8960  -45.5810 H   0  0  0  0  0  0
  -26.2429   31.3983  -44.7558 H   0  0  0  0  0  0
  -25.8036   32.6205  -46.8952 H   0  0  0  0  0  0
  -25.8284   31.1103  -47.7743 H   0  0  0  0  0  0
  -28.0305   32.2569  -47.9744 H   0  0  0  0  0  0
  -28.2130   30.7378  -47.1036 H   0  0  0  0  0  0
  -28.2132   32.2644  -46.2216 H   0  0  0  0  0  0
  1  2  2  0  0  0
  1  4  1  0  0  0
  1 26  1  0  0  0
  2  3  1  0  0  0
  2 15  1  0  0  0
  3  6  2  0  0  0
  3 27  1  0  0  0
  4  5  2  0  0  0
  4 28  1  0  0  0
  5  8  1  0  0  0
  5  6  1  0  0  0
  6 10  1  0  0  0
  7 14  1  0  0  0
  7  8  1  0  0  0
  7  9  1  0  0  0
  7 11  1  0  0  0
  8 29  1  0  0  0
  8 30  1  0  0  0
  9 10  1  0  0  0
  9 31  1  0  0  0
 10 32  1  0  0  0
 10 33  1  0  0  0
 11 13  1  0  0  0
 11 12  2  0  0  0
 13 21  1  0  0  0
 13 34  1  0  0  0
 15 16  1  0  0  0
 16 17  1  0  0  0
 16 35  1  0  0  0
 16 36  1  0  0  0
 17 18  2  0  0  0
 17 19  1  0  0  0
 19 20  1  0  0  0
 19 37  1  0  0  0
 20 38  1  0  0  0
 21 22  1  0  0  0
 21 39  1  0  0  0
 21 40  1  0  0  0
 22 23  1  0  0  0
 22 41  1  0  0  0
 22 42  1  0  0  0
 23 24  1  0  0  0
 23 43  1  0  0  0
 23 44  1  0  0  0
 24 25  1  0  0  0
 24 45  1  0  0  0
 24 46  1  0  0  0
 25 47  1  0  0  0
 25 48  1  0  0  0
 25 49  1  0  0  0
M  END
> <s_m_entry_id>
52837

> <s_m_entry_name>
dock_pv.56

> <s_m_Source_Path>
/home/csk/Desktop/cluster/DUD-E-result/hdac8

> <s_m_Source_File>
dock_pv.maegz

> <i_m_Source_File_Index>
56

> <chembl_id>
CHEMBL610777

> <chembl_pref_name>
None

> <i_lp_mmshare_version>
53161

> <i_f3d_flags>
0

> <r_lp_tautomer_probability>
1

> <s_lp_Force_Field>
OPLS_2005

> <r_lp_Energy>
31.923012

> <b_lp_Chiralities_Consistent>
1

> <s_lp_Variant>
CHEMBL3192_lig212-1

> <s_i_glide_gridfile>
glide-grid_3f07

> <i_i_glide_lignum>
222

> <i_i_glide_rotatable_bonds>
11

> <r_i_docking_score>
-8.17911265463887

> <r_i_glide_ligand_efficiency>
-0.340796360609953

> <r_i_glide_ligand_efficiency_sa>
-0.983026808262695

> <r_i_glide_ligand_efficiency_ln>
-1.95763697327895

> <r_i_glide_gscore>
-8.17911265463887

> <r_i_glide_lipo>
-1.55015972703253

> <r_i_glide_hbond>
-0.416700089292373

> <r_i_glide_metal>
-2.3

> <r_i_glide_rewards>
-1.30878199613871

> <r_i_glide_evdw>
-30.9325523376465

> <r_i_glide_ecoul>
-16.4232959747314

> <r_i_glide_erotb>
1.509946174834

> <r_i_glide_esite>
-0.103295003917203

> <r_i_glide_emodel>
-73.865715728115

> <r_i_glide_energy>
-47.3558483123779

> <r_i_glide_einternal>
6.19184255599976

> <i_i_glide_confnum>
19

> <i_i_glide_posenum>
398

> <r_i_glide_eff_state_penalty>
0

> <s_user_duplicate_titles>
CHEMBL3192_lig212

> <s_m_subgroup_title>
dock_pv

> <s_m_subgroupid>
dock_pv

> <b_m_subgroup_collapsed>
1

$$$$
CHEMBL3192_lig683
                    3D
 Schrodinger Suite 2021-1.
 40 42  0  0  1  0            999 V2000
  -28.9530   29.6462  -39.1040 C   0  0  0  0  0  0
  -28.5540   28.3142  -39.2678 C   0  0  0  0  0  0
  -27.3900   28.0600  -39.9802 C   0  0  0  0  0  0
  -28.2398   30.6882  -39.6955 C   0  0  0  0  0  0
  -27.0947   30.4223  -40.4394 C   0  0  0  0  0  0
  -26.6665   29.1028  -40.5529 C   0  0  0  0  0  0
  -29.4130   27.1636  -38.8067 C   0  0  0  0  0  0
  -29.4130   26.8691  -37.5097 N   0  0  0  0  0  0
  -30.2130   26.6228  -39.5810 O   0  0  0  0  0  0
  -30.2132   25.8010  -37.0586 O   0  0  0  0  0  0
  -26.4118   31.4965  -41.0419 N   0  0  0  0  0  0
  -25.1849   31.3367  -41.8390 C   0  0  2  0  0  0
  -24.4426   32.6393  -42.0659 C   0  0  0  0  0  0
  -24.7236   33.0053  -43.5081 C   0  0  0  0  0  0
  -25.1690   31.7641  -44.1425 N   0  0  0  0  0  0
  -25.4905   30.7872  -43.2522 C   0  0  0  0  0  0
  -25.9533   29.6703  -43.5040 O   0  0  0  0  0  0
  -25.3707   31.6486  -45.5265 C   0  0  0  0  0  0
  -26.6460   31.3905  -46.0434 C   0  0  0  0  0  0
  -26.8255   31.2690  -47.4184 C   0  0  0  0  0  0
  -25.7307   31.3915  -48.2719 C   0  0  0  0  0  0
  -24.4620   31.6691  -47.7631 C   0  0  0  0  0  0
  -24.2811   31.8037  -46.3886 C   0  0  0  0  0  0
  -25.9451   31.1787  -49.9713 Cl  0  0  0  0  0  0
  -29.8130   29.9001  -38.5128 H   0  0  0  0  0  0
  -27.0446   27.0449  -40.1250 H   0  0  0  0  0  0
  -28.5842   31.7032  -39.5809 H   0  0  0  0  0  0
  -25.7803   28.8690  -41.1141 H   0  0  0  0  0  0
  -28.8238   27.2694  -36.7810 H   0  0  0  0  0  0
  -29.5826   25.0949  -36.8818 H   0  0  0  0  0  0
  -26.6281   32.4297  -40.7227 H   0  0  0  0  0  0
  -24.4999   30.6339  -41.3608 H   0  0  0  0  0  0
  -24.7242   33.4414  -41.3811 H   0  0  0  0  0  0
  -23.3717   32.4778  -41.9278 H   0  0  0  0  0  0
  -23.8367   33.4109  -43.9969 H   0  0  0  0  0  0
  -25.5119   33.7567  -43.5763 H   0  0  0  0  0  0
  -27.4912   31.2772  -45.3809 H   0  0  0  0  0  0
  -27.8075   31.0609  -47.8181 H   0  0  0  0  0  0
  -23.6185   31.7711  -48.4306 H   0  0  0  0  0  0
  -23.2947   32.0079  -45.9967 H   0  0  0  0  0  0
  1  2  2  0  0  0
  1  4  1  0  0  0
  1 25  1  0  0  0
  2  3  1  0  0  0
  2  7  1  0  0  0
  3  6  2  0  0  0
  3 26  1  0  0  0
  4  5  2  0  0  0
  4 27  1  0  0  0
  5  6  1  0  0  0
  5 11  1  0  0  0
  6 28  1  0  0  0
  7  8  1  0  0  0
  7  9  2  0  0  0
  8 10  1  0  0  0
  8 29  1  0  0  0
 10 30  1  0  0  0
 11 12  1  0  0  0
 11 31  1  0  0  0
 12 13  1  0  0  0
 12 16  1  0  0  0
 12 32  1  0  0  0
 13 14  1  0  0  0
 13 33  1  0  0  0
 13 34  1  0  0  0
 14 15  1  0  0  0
 14 35  1  0  0  0
 14 36  1  0  0  0
 15 16  1  0  0  0
 15 18  1  0  0  0
 16 17  2  0  0  0
 18 19  2  0  0  0
 18 23  1  0  0  0
 19 20  1  0  0  0
 19 37  1  0  0  0
 20 21  2  0  0  0
 20 38  1  0  0  0
 21 22  1  0  0  0
 21 24  1  0  0  0
 22 23  2  0  0  0
 22 39  1  0  0  0
 23 40  1  0  0  0
M  END
> <s_m_entry_id>
52838

> <s_m_entry_name>
dock_pv.57

> <s_m_Source_Path>
/home/csk/Desktop/cluster/DUD-E-result/hdac8

> <s_m_Source_File>
dock_pv.maegz

> <i_m_Source_File_Index>
57

> <chembl_id>
CHEMBL3415453

> <chembl_pref_name>
None

> <i_lp_mmshare_version>
53161

> <i_f3d_flags>
0

> <r_lp_tautomer_probability>
1

> <s_lp_Force_Field>
OPLS_2005

> <r_lp_Energy>
43.806343

> <b_lp_Chiralities_Consistent>
1

> <s_lp_Variant>
CHEMBL3192_lig683-1

> <s_i_glide_gridfile>
glide-grid_3f07

> <i_i_glide_lignum>
716

> <i_i_glide_rotatable_bonds>
6

> <r_i_docking_score>
-8.17272641658981

> <r_i_glide_ligand_efficiency>
-0.340530267357909

> <r_i_glide_ligand_efficiency_sa>
-0.982259262506664

> <r_i_glide_ligand_efficiency_ln>
-1.95610845346844

> <r_i_glide_gscore>
-8.17272641658981

> <r_i_glide_lipo>
-0.962022185339042

> <r_i_glide_hbond>
-0.675363679378104

> <r_i_glide_metal>
-2.3

> <r_i_glide_rewards>
-1.28248120383016

> <r_i_glide_evdw>
-20.0472831726074

> <r_i_glide_ecoul>
-16.8858814239502

> <r_i_glide_erotb>
0.794722982789739

> <r_i_glide_esite>
-0.212335958609347

> <r_i_glide_emodel>
-54.6293270084076

> <r_i_glide_energy>
-36.9331645965576

> <r_i_glide_einternal>
7.87499141693115

> <i_i_glide_confnum>
15

> <i_i_glide_posenum>
218

> <r_i_glide_eff_state_penalty>
0

> <s_user_duplicate_titles>
CHEMBL3192_lig683

> <s_m_subgroup_title>
dock_pv

> <s_m_subgroupid>
dock_pv

> <b_m_subgroup_collapsed>
1

$$$$
CHEMBL3192_lig62
                    3D
 Schrodinger Suite 2021-1.
 44 45  0  0  1  0            999 V2000
  -24.5113   31.6308  -45.0644 C   0  0  0  0  0  0
  -24.6319   31.7284  -43.6686 N   0  0  0  0  0  0
  -25.5909   31.9058  -45.9722 C   0  0  0  0  0  0
  -25.4865   31.0300  -42.8959 C   0  0  0  0  0  0
  -26.8233   32.2699  -45.5010 N   0  0  0  0  0  0
  -29.9953   26.4689  -38.0904 C   0  0  0  0  0  0
  -26.2127   30.1249  -43.3145 O   0  0  0  0  0  0
  -30.4208   26.0690  -39.1810 O   0  0  0  0  0  0
  -25.3395   31.8288  -47.3803 C   0  0  0  0  0  0
  -28.9242   27.2671  -37.9810 N   0  0  0  0  0  0
  -31.4129   24.4691  -36.7824 S   0  0  0  0  0  0
  -23.2438   31.3355  -45.5685 C   0  0  0  0  0  0
  -30.7264   26.1526  -36.7771 C   0  0  0  0  0  0
  -23.0135   31.2691  -46.9377 C   0  0  0  0  0  0
  -25.4897   31.4306  -41.4104 C   0  0  0  0  0  0
  -27.8131   32.5412  -46.3840 C   0  0  0  0  0  0
  -24.0429   31.5017  -47.8435 C   0  0  0  0  0  0
  -27.9967   27.6266  -39.0467 C   0  0  0  0  0  0
  -26.4070   32.1067  -48.2721 C   0  0  0  0  0  0
  -26.7383   31.0097  -40.5997 C   0  0  0  0  0  0
  -27.9514   29.1343  -39.3264 C   0  0  0  0  0  0
  -26.7684   29.5159  -40.2328 C   0  0  0  0  0  0
  -27.6503   32.4688  -47.7621 C   0  0  0  0  0  0
  -23.9546   32.3131  -43.2032 H   0  0  0  0  0  0
  -28.6358   27.5440  -37.0431 H   0  0  0  0  0  0
  -30.2983   23.8389  -37.1788 H   0  0  0  0  0  0
  -22.4168   31.1530  -44.8959 H   0  0  0  0  0  0
  -30.0515   26.2490  -35.9249 H   0  0  0  0  0  0
  -31.5369   26.8678  -36.6336 H   0  0  0  0  0  0
  -22.0217   31.0334  -47.2973 H   0  0  0  0  0  0
  -24.5853   31.0478  -40.9351 H   0  0  0  0  0  0
  -25.4173   32.5190  -41.3672 H   0  0  0  0  0  0
  -28.7652   32.8239  -45.9593 H   0  0  0  0  0  0
  -23.8528   31.4521  -48.9059 H   0  0  0  0  0  0
  -28.1591   27.0767  -39.9744 H   0  0  0  0  0  0
  -27.0130   27.2933  -38.7214 H   0  0  0  0  0  0
  -26.2477   32.0516  -49.3394 H   0  0  0  0  0  0
  -26.7514   31.5901  -39.6755 H   0  0  0  0  0  0
  -27.6481   31.2847  -41.1362 H   0  0  0  0  0  0
  -27.8703   29.6788  -38.3846 H   0  0  0  0  0  0
  -28.8908   29.4454  -39.7854 H   0  0  0  0  0  0
  -26.7953   28.9070  -41.1368 H   0  0  0  0  0  0
  -25.8345   29.2687  -39.7257 H   0  0  0  0  0  0
  -28.4765   32.6865  -48.4241 H   0  0  0  0  0  0
  1  2  1  0  0  0
  1  3  1  0  0  0
  1 12  2  0  0  0
  2  4  1  0  0  0
  2 24  1  0  0  0
  3  5  2  0  0  0
  3  9  1  0  0  0
  4  7  2  0  0  0
  4 15  1  0  0  0
  5 16  1  0  0  0
  6 10  1  0  0  0
  6  8  2  0  0  0
  6 13  1  0  0  0
  9 19  2  0  0  0
  9 17  1  0  0  0
 10 18  1  0  0  0
 10 25  1  0  0  0
 11 13  1  0  0  0
 11 26  1  0  0  0
 12 14  1  0  0  0
 12 27  1  0  0  0
 13 28  1  0  0  0
 13 29  1  0  0  0
 14 17  2  0  0  0
 14 30  1  0  0  0
 15 20  1  0  0  0
 15 31  1  0  0  0
 15 32  1  0  0  0
 16 23  2  0  0  0
 16 33  1  0  0  0
 17 34  1  0  0  0
 18 21  1  0  0  0
 18 35  1  0  0  0
 18 36  1  0  0  0
 19 23  1  0  0  0
 19 37  1  0  0  0
 20 22  1  0  0  0
 20 38  1  0  0  0
 20 39  1  0  0  0
 21 22  1  0  0  0
 21 40  1  0  0  0
 21 41  1  0  0  0
 22 42  1  0  0  0
 22 43  1  0  0  0
 23 44  1  0  0  0
M  END
> <s_m_entry_id>
52839

> <s_m_entry_name>
dock_pv.58

> <s_m_Source_Path>
/home/csk/Desktop/cluster/DUD-E-result/hdac8

> <s_m_Source_File>
dock_pv.maegz

> <i_m_Source_File_Index>
58

> <chembl_id>
CHEMBL178456

> <chembl_pref_name>
None

> <i_lp_mmshare_version>
53161

> <i_f3d_flags>
0

> <r_lp_tautomer_probability>
1

> <s_lp_Force_Field>
OPLS_2005

> <r_lp_Energy>
15.809455

> <b_lp_Chiralities_Consistent>
1

> <s_lp_Variant>
CHEMBL3192_lig62-1

> <s_i_glide_gridfile>
glide-grid_3f07

> <i_i_glide_lignum>
64

> <i_i_glide_rotatable_bonds>
11

> <r_i_docking_score>
-8.16824294434036

> <r_i_glide_ligand_efficiency>
-0.355140997580016

> <r_i_glide_ligand_efficiency_sa>
-1.00997375515376

> <r_i_glide_ligand_efficiency_ln>
-1.97515520947359

> <r_i_glide_gscore>
-8.16824294434036

> <r_i_glide_lipo>
-1.09981104581764

> <r_i_glide_hbond>
-0.764857982605156

> <r_i_glide_metal>
-2.3

> <r_i_glide_rewards>
-1.20451366570304

> <r_i_glide_evdw>
-32.1727485656738

> <r_i_glide_ecoul>
-16.9272022247314

> <r_i_glide_erotb>
1.54204921225398

> <r_i_glide_esite>
-0.1933917004751

> <r_i_glide_emodel>
-74.9249448963996

> <r_i_glide_energy>
-49.0999507904053

> <r_i_glide_einternal>
8.45761013031006

> <i_i_glide_confnum>
20

> <i_i_glide_posenum>
365

> <r_i_glide_eff_state_penalty>
0

> <s_user_duplicate_titles>
CHEMBL3192_lig62

> <s_m_subgroup_title>
dock_pv

> <s_m_subgroupid>
dock_pv

> <b_m_subgroup_collapsed>
1

$$$$
CHEMBL3192_lig433
                    3D
 Schrodinger Suite 2021-1.
 36 37  0  0  1  0            999 V2000
  -27.3750   28.3754  -38.3831 C   0  0  0  0  0  0
  -28.5873   28.1524  -39.0388 C   0  0  0  0  0  0
  -29.0140   29.0954  -39.9811 C   0  0  0  0  0  0
  -28.2539   30.2240  -40.2705 C   0  0  0  0  0  0
  -27.0355   30.4247  -39.6245 C   0  0  0  0  0  0
  -26.6013   29.4960  -38.6799 C   0  0  0  0  0  0
  -26.1795   31.6486  -39.9425 C   0  0  0  0  0  0
  -25.8490   31.8298  -41.4398 C   0  0  0  0  0  0
  -25.0815   30.6446  -42.0603 C   0  0  0  0  0  0
  -24.7489   30.8574  -43.5312 C   0  0  0  0  0  0
  -23.4256   31.0707  -43.9288 C   0  0  0  0  0  0
  -23.1254   31.2710  -45.2734 C   0  0  0  0  0  0
  -24.1510   31.2647  -46.2163 C   0  0  0  0  0  0
  -25.4720   31.0462  -45.8281 C   0  0  0  0  0  0
  -25.7709   30.8374  -44.4849 C   0  0  0  0  0  0
  -29.4291   26.9289  -38.7421 C   0  0  0  0  0  0
  -29.4138   26.4736  -37.4866 N   0  0  0  0  0  0
  -30.2130   26.4692  -39.5809 O   0  0  0  0  0  0
  -30.2132   25.3600  -37.1611 O   0  0  0  0  0  0
  -27.0132   27.6685  -37.6522 H   0  0  0  0  0  0
  -29.9483   28.9646  -40.5053 H   0  0  0  0  0  0
  -28.6083   30.9315  -41.0050 H   0  0  0  0  0  0
  -25.6545   29.6344  -38.1779 H   0  0  0  0  0  0
  -25.2468   31.6112  -39.3753 H   0  0  0  0  0  0
  -26.7015   32.5348  -39.5797 H   0  0  0  0  0  0
  -25.2523   32.7359  -41.5537 H   0  0  0  0  0  0
  -26.7665   32.0122  -41.9996 H   0  0  0  0  0  0
  -25.6628   29.7258  -41.9722 H   0  0  0  0  0  0
  -24.1668   30.4691  -41.4922 H   0  0  0  0  0  0
  -22.6291   31.0877  -43.1993 H   0  0  0  0  0  0
  -22.1023   31.4355  -45.5815 H   0  0  0  0  0  0
  -23.9186   31.4276  -47.2587 H   0  0  0  0  0  0
  -26.2603   31.0390  -46.5665 H   0  0  0  0  0  0
  -26.7958   30.6718  -44.1859 H   0  0  0  0  0  0
  -28.8910   26.8537  -36.6994 H   0  0  0  0  0  0
  -29.5900   24.6240  -37.1440 H   0  0  0  0  0  0
  1  2  2  0  0  0
  1  6  1  0  0  0
  1 20  1  0  0  0
  2  3  1  0  0  0
  2 16  1  0  0  0
  3  4  2  0  0  0
  3 21  1  0  0  0
  4  5  1  0  0  0
  4 22  1  0  0  0
  5  6  2  0  0  0
  5  7  1  0  0  0
  6 23  1  0  0  0
  7  8  1  0  0  0
  7 24  1  0  0  0
  7 25  1  0  0  0
  8  9  1  0  0  0
  8 26  1  0  0  0
  8 27  1  0  0  0
  9 10  1  0  0  0
  9 28  1  0  0  0
  9 29  1  0  0  0
 10 11  2  0  0  0
 10 15  1  0  0  0
 11 12  1  0  0  0
 11 30  1  0  0  0
 12 13  2  0  0  0
 12 31  1  0  0  0
 13 14  1  0  0  0
 13 32  1  0  0  0
 14 15  2  0  0  0
 14 33  1  0  0  0
 15 34  1  0  0  0
 16 17  1  0  0  0
 16 18  2  0  0  0
 17 19  1  0  0  0
 17 35  1  0  0  0
 19 36  1  0  0  0
M  END
> <s_m_entry_id>
52840

> <s_m_entry_name>
dock_pv.59

> <s_m_Source_Path>
/home/csk/Desktop/cluster/DUD-E-result/hdac8

> <s_m_Source_File>
dock_pv.maegz

> <i_m_Source_File_Index>
59

> <chembl_id>
CHEMBL2235666

> <chembl_pref_name>
None

> <i_lp_mmshare_version>
53161

> <i_f3d_flags>
0

> <r_lp_tautomer_probability>
1

> <s_lp_Force_Field>
OPLS_2005

> <r_lp_Energy>
20.936132

> <b_lp_Chiralities_Consistent>
1

> <s_lp_Variant>
CHEMBL3192_lig433-1

> <s_i_glide_gridfile>
glide-grid_3f07

> <i_i_glide_lignum>
452

> <i_i_glide_rotatable_bonds>
7

> <r_i_docking_score>
-8.15131413502943

> <r_i_glide_ligand_efficiency>
-0.429016533422601

> <r_i_glide_ligand_efficiency_sa>
-1.14478842399026

> <r_i_glide_ligand_efficiency_ln>
-2.06653320740482

> <r_i_glide_gscore>
-8.15131413502943

> <r_i_glide_lipo>
-1.39886637915244

> <r_i_glide_hbond>
-0.607220557127089

> <r_i_glide_metal>
-2.3

> <r_i_glide_rewards>
-1.94373223736371

> <r_i_glide_evdw>
-19.3462238311768

> <r_i_glide_ecoul>
-13.931568145752

> <r_i_glide_erotb>
1.3503797639943

> <r_i_glide_esite>
-0.194828311958864

> <r_i_glide_emodel>
-54.1784160240957

> <r_i_glide_energy>
-33.2777919769287

> <r_i_glide_einternal>
1.54890978336334

> <i_i_glide_confnum>
23

> <i_i_glide_posenum>
359

> <r_i_glide_eff_state_penalty>
0

> <s_user_duplicate_titles>
CHEMBL3192_lig433

> <s_m_subgroup_title>
dock_pv

> <s_m_subgroupid>
dock_pv

> <b_m_subgroup_collapsed>
1

$$$$
CHEMBL3192_lig803
                    3D
 Schrodinger Suite 2021-1.
 52 55  0  0  1  0            999 V2000
  -31.1965   24.4699  -37.0140 O   0  0  0  0  0  0
  -30.2129   25.4657  -37.1391 N   0  0  0  0  0  0
  -30.1793   26.1898  -38.2695 C   0  0  0  0  0  0
  -31.0066   26.0690  -39.1810 O   0  0  0  0  0  0
  -29.0978   27.1519  -38.3484 C   0  0  0  0  0  0
  -29.0324   28.0861  -39.3266 C   0  0  0  0  0  0
  -28.0041   29.1245  -39.5380 C   0  0  0  0  0  0
  -26.7794   29.1192  -38.8614 C   0  0  0  0  0  0
  -25.7799   30.0692  -39.1002 C   0  0  0  0  0  0
  -26.0747   31.0781  -40.0255 C   0  0  0  0  0  0
  -27.3248   31.1344  -40.6829 C   0  0  0  0  0  0
  -28.2874   30.1444  -40.4529 C   0  0  0  0  0  0
  -27.4130   32.2323  -41.4872 N   0  0  0  0  0  0
  -26.2632   32.8432  -41.3572 C   0  0  0  0  0  0
  -25.9858   34.1724  -42.0482 C   0  0  0  0  0  0
  -25.3307   34.0681  -43.4431 C   0  0  0  0  0  0
  -26.0947   33.2255  -44.4600 C   0  0  0  0  0  0
  -27.0866   33.8099  -45.2529 C   0  0  0  0  0  0
  -27.7476   33.0482  -46.2148 C   0  0  0  0  0  0
  -27.4130   31.7056  -46.3813 C   0  0  0  0  0  0
  -26.4401   31.1126  -45.5810 C   0  0  0  0  0  0
  -25.7831   31.8727  -44.6200 C   0  0  0  0  0  0
  -25.3853   32.1789  -40.5115 N   0  0  0  0  0  0
  -24.0271   32.5895  -40.1360 C   0  0  0  0  0  0
  -22.8722   32.2094  -41.0629 C   0  0  0  0  0  0
  -21.5580   32.4556  -40.6519 C   0  0  0  0  0  0
  -20.5102   32.1497  -41.5232 C   0  0  0  0  0  0
  -20.7959   31.6185  -42.7824 C   0  0  0  0  0  0
  -22.1308   31.3993  -43.1238 C   0  0  0  0  0  0
  -23.1597   31.6690  -42.2781 N   0  0  0  0  0  0
  -30.7152   23.6502  -37.1811 H   0  0  0  0  0  0
  -29.5696   25.4967  -36.3597 H   0  0  0  0  0  0
  -28.3425   27.1036  -37.5812 H   0  0  0  0  0  0
  -29.8129   28.1030  -40.0716 H   0  0  0  0  0  0
  -26.5753   28.3359  -38.1479 H   0  0  0  0  0  0
  -24.8302   30.0214  -38.5869 H   0  0  0  0  0  0
  -29.2317   30.1809  -40.9759 H   0  0  0  0  0  0
  -26.9176   34.7293  -42.1550 H   0  0  0  0  0  0
  -25.3719   34.8115  -41.4138 H   0  0  0  0  0  0
  -25.2131   35.0721  -43.8539 H   0  0  0  0  0  0
  -24.3078   33.7062  -43.3605 H   0  0  0  0  0  0
  -27.3370   34.8539  -45.1335 H   0  0  0  0  0  0
  -28.5114   33.4969  -46.8335 H   0  0  0  0  0  0
  -27.9237   31.1164  -47.1295 H   0  0  0  0  0  0
  -26.1935   30.0690  -45.7015 H   0  0  0  0  0  0
  -25.0319   31.4057  -44.0051 H   0  0  0  0  0  0
  -24.0180   33.6686  -39.9810 H   0  0  0  0  0  0
  -23.8120   32.1522  -39.1628 H   0  0  0  0  0  0
  -21.3563   32.8855  -39.6800 H   0  0  0  0  0  0
  -19.4876   32.3334  -41.2281 H   0  0  0  0  0  0
  -20.0034   31.3815  -43.4780 H   0  0  0  0  0  0
  -22.3902   30.9910  -44.0896 H   0  0  0  0  0  0
  1  2  1  0  0  0
  1 31  1  0  0  0
  2  3  1  0  0  0
  2 32  1  0  0  0
  3  4  2  0  0  0
  3  5  1  0  0  0
  5  6  2  0  0  0
  5 33  1  0  0  0
  6  7  1  0  0  0
  6 34  1  0  0  0
  7  8  2  0  0  0
  7 12  1  0  0  0
  8  9  1  0  0  0
  8 35  1  0  0  0
  9 10  2  0  0  0
  9 36  1  0  0  0
 10 11  1  0  0  0
 10 23  1  0  0  0
 11 12  2  0  0  0
 11 13  1  0  0  0
 12 37  1  0  0  0
 13 14  2  0  0  0
 14 15  1  0  0  0
 14 23  1  0  0  0
 15 16  1  0  0  0
 15 38  1  0  0  0
 15 39  1  0  0  0
 16 17  1  0  0  0
 16 40  1  0  0  0
 16 41  1  0  0  0
 17 18  2  0  0  0
 17 22  1  0  0  0
 18 19  1  0  0  0
 18 42  1  0  0  0
 19 20  2  0  0  0
 19 43  1  0  0  0
 20 21  1  0  0  0
 20 44  1  0  0  0
 21 22  2  0  0  0
 21 45  1  0  0  0
 22 46  1  0  0  0
 23 24  1  0  0  0
 24 25  1  0  0  0
 24 47  1  0  0  0
 24 48  1  0  0  0
 25 26  2  0  0  0
 25 30  1  0  0  0
 26 27  1  0  0  0
 26 49  1  0  0  0
 27 28  2  0  0  0
 27 50  1  0  0  0
 28 29  1  0  0  0
 28 51  1  0  0  0
 29 30  2  0  0  0
 29 52  1  0  0  0
M  END
> <s_m_entry_id>
52841

> <s_m_entry_name>
dock_pv.60

> <s_m_Source_Path>
/home/csk/Desktop/cluster/DUD-E-result/hdac8

> <s_m_Source_File>
dock_pv.maegz

> <i_m_Source_File_Index>
60

> <chembl_id>
CHEMBL489706

> <chembl_pref_name>
None

> <i_lp_mmshare_version>
53161

> <i_f3d_flags>
0

> <r_lp_tautomer_probability>
1

> <s_lp_Force_Field>
OPLS_2005

> <r_lp_Energy>
25.265797

> <b_lp_Chiralities_Consistent>
1

> <s_lp_Variant>
CHEMBL3192_lig803-1

> <s_i_glide_gridfile>
glide-grid_3f07

> <i_i_glide_lignum>
857

> <i_i_glide_rotatable_bonds>
9

> <r_i_docking_score>
-8.15005288598872

> <r_i_glide_ligand_efficiency>
-0.271668429532957

> <r_i_glide_ligand_efficiency_sa>
-0.844136974129215

> <r_i_glide_ligand_efficiency_ln>
-1.85178081763531

> <r_i_glide_gscore>
-8.15005288598872

> <r_i_glide_lipo>
-1.49817372949705

> <r_i_glide_hbond>
-0.23795944800695

> <r_i_glide_metal>
-2.3

> <r_i_glide_rewards>
-0.941371396252134

> <r_i_glide_evdw>
-37.6763458251953

> <r_i_glide_ecoul>
-13.9713907241821

> <r_i_glide_erotb>
0.986840022063515

> <r_i_glide_esite>
-0.17986243440901

> <r_i_glide_emodel>
-82.5081120903974

> <r_i_glide_energy>
-51.6477365493774

> <r_i_glide_einternal>
2.39908266067505

> <i_i_glide_confnum>
4

> <i_i_glide_posenum>
23

> <r_i_glide_eff_state_penalty>
0

> <s_user_duplicate_titles>
CHEMBL3192_lig803

> <s_m_subgroup_title>
dock_pv

> <s_m_subgroupid>
dock_pv

> <b_m_subgroup_collapsed>
1

$$$$
CHEMBL3192_lig200
                    3D
 Schrodinger Suite 2021-1.
 44 46  0  0  1  0            999 V2000
  -28.3128   29.8674  -40.7211 C   0  0  0  0  0  0
  -28.0793   29.1056  -39.5808 C   0  0  0  0  0  0
  -26.8817   29.2950  -38.8774 C   0  0  0  0  0  0
  -27.3699   30.7854  -41.1666 C   0  0  0  0  0  0
  -26.1648   30.9587  -40.4848 C   0  0  0  0  0  0
  -25.9060   30.1955  -39.3285 C   0  0  0  0  0  0
  -23.7002   31.4239  -40.6368 C   0  0  2  0  0  0
  -25.1137   31.9451  -40.9770 C   0  0  0  0  0  0
  -23.6024   31.2688  -39.1804 N   0  0  1  0  0  0
  -24.5325   30.2675  -38.6452 C   0  0  0  0  0  0
  -22.6239   32.3906  -41.1930 C   0  0  0  0  0  0
  -22.2433   32.2138  -42.3515 O   0  0  0  0  0  0
  -22.1389   33.3589  -40.3814 N   0  0  0  0  0  0
  -21.1618   34.3306  -40.6681 C   0  0  0  0  0  0
  -20.9177   34.8270  -41.9580 C   0  0  0  0  0  0
  -19.9445   35.8037  -42.1550 C   0  0  0  0  0  0
  -19.2216   36.2901  -41.0690 C   0  0  0  0  0  0
  -19.4647   35.8107  -39.7849 C   0  0  0  0  0  0
  -20.4369   34.8341  -39.5842 C   0  0  0  0  0  0
  -23.4933   30.4691  -41.1180 H   0  0  0  0  0  0
  -29.0568   28.1862  -39.2657 O   0  0  0  0  0  0
  -29.0395   27.4766  -38.0257 C   0  0  0  0  0  0
  -30.0245   26.2986  -38.1168 C   0  0  0  0  0  0
  -30.6136   26.0690  -39.1810 O   0  0  0  0  0  0
  -30.2129   25.5736  -37.0015 N   0  0  0  0  0  0
  -31.0802   24.4719  -37.0685 O   0  0  0  0  0  0
  -18.2789   37.2394  -41.2628 F   0  0  0  0  0  0
  -29.2308   29.7340  -41.2744 H   0  0  0  0  0  0
  -26.6632   28.7077  -37.9998 H   0  0  0  0  0  0
  -27.5691   31.3577  -42.0602 H   0  0  0  0  0  0
  -25.2227   32.1221  -42.0487 H   0  0  0  0  0  0
  -25.2876   32.8991  -40.4732 H   0  0  0  0  0  0
  -22.6621   31.0482  -38.8793 H   0  0  0  0  0  0
  -24.6502   30.4693  -37.5811 H   0  0  0  0  0  0
  -24.0681   29.2844  -38.7268 H   0  0  0  0  0  0
  -22.4787   33.3512  -39.4225 H   0  0  0  0  0  0
  -21.4796   34.4789  -42.8113 H   0  0  0  0  0  0
  -19.7534   36.1889  -43.1453 H   0  0  0  0  0  0
  -18.9017   36.1970  -38.9486 H   0  0  0  0  0  0
  -20.6143   34.4670  -38.5826 H   0  0  0  0  0  0
  -29.3832   28.1471  -37.2345 H   0  0  0  0  0  0
  -28.0504   27.0798  -37.8076 H   0  0  0  0  0  0
  -29.7737   25.6870  -36.0969 H   0  0  0  0  0  0
  -30.4874   23.7171  -37.1799 H   0  0  0  0  0  0
  1  4  1  0  0  0
  1  2  2  0  0  0
  1 28  1  0  0  0
  2  3  1  0  0  0
  2 21  1  0  0  0
  3  6  2  0  0  0
  3 29  1  0  0  0
  4  5  2  0  0  0
  4 30  1  0  0  0
  5  8  1  0  0  0
  5  6  1  0  0  0
  6 10  1  0  0  0
  7  8  1  0  0  0
  7 20  1  0  0  0
  7  9  1  0  0  0
  7 11  1  0  0  0
  8 31  1  0  0  0
  8 32  1  0  0  0
  9 10  1  0  0  0
  9 33  1  0  0  0
 10 34  1  0  0  0
 10 35  1  0  0  0
 11 12  2  0  0  0
 11 13  1  0  0  0
 13 14  1  0  0  0
 13 36  1  0  0  0
 14 15  2  0  0  0
 14 19  1  0  0  0
 15 16  1  0  0  0
 15 37  1  0  0  0
 16 17  2  0  0  0
 16 38  1  0  0  0
 17 18  1  0  0  0
 17 27  1  0  0  0
 18 19  2  0  0  0
 18 39  1  0  0  0
 19 40  1  0  0  0
 21 22  1  0  0  0
 22 23  1  0  0  0
 22 41  1  0  0  0
 22 42  1  0  0  0
 23 24  2  0  0  0
 23 25  1  0  0  0
 25 26  1  0  0  0
 25 43  1  0  0  0
 26 44  1  0  0  0
M  END
> <s_m_entry_id>
52842

> <s_m_entry_name>
dock_pv.61

> <s_m_Source_Path>
/home/csk/Desktop/cluster/DUD-E-result/hdac8

> <s_m_Source_File>
dock_pv.maegz

> <i_m_Source_File_Index>
61

> <chembl_id>
CHEMBL596603

> <chembl_pref_name>
None

> <i_lp_mmshare_version>
53161

> <i_f3d_flags>
0

> <r_lp_tautomer_probability>
1

> <s_lp_Force_Field>
OPLS_2005

> <r_lp_Energy>
42.623958

> <b_lp_Chiralities_Consistent>
1

> <s_lp_Variant>
CHEMBL3192_lig200-1

> <s_i_glide_gridfile>
glide-grid_3f07

> <i_i_glide_lignum>
210

> <i_i_glide_rotatable_bonds>
8

> <r_i_docking_score>
-8.14821025351116

> <r_i_glide_ligand_efficiency>
-0.313392702058121

> <r_i_glide_ligand_efficiency_sa>
-0.928424646706448

> <r_i_glide_ligand_efficiency_ln>
-1.91358044157853

> <r_i_glide_gscore>
-8.14821025351116

> <r_i_glide_lipo>
-1.07373473966515

> <r_i_glide_hbond>
-0.455042299691447

> <r_i_glide_metal>
-2.3

> <r_i_glide_rewards>
-1.1240173675673

> <r_i_glide_evdw>
-28.5904560089111

> <r_i_glide_ecoul>
-17.413013458252

> <r_i_glide_erotb>
1.03896103107619

> <r_i_glide_esite>
-0.192902058480106

> <r_i_glide_emodel>
-68.0633047480962

> <r_i_glide_energy>
-46.0034694671631

> <r_i_glide_einternal>
8.37484645843506

> <i_i_glide_confnum>
27

> <i_i_glide_posenum>
368

> <r_i_glide_eff_state_penalty>
0

> <s_user_duplicate_titles>
CHEMBL3192_lig200

> <s_m_subgroup_title>
dock_pv

> <s_m_subgroupid>
dock_pv

> <b_m_subgroup_collapsed>
1

$$$$
CHEMBL3192_lig262
                    3D
 Schrodinger Suite 2021-1.
 63 66  0  0  1  0            999 V2000
  -24.7708   32.4806  -42.4645 N   0  0  0  0  0  0
  -25.4674   30.5293  -43.3006 N   0  0  0  0  0  0
  -24.9469   31.2430  -44.2793 C   0  0  0  0  0  0
  -24.4840   32.4658  -43.8164 C   0  0  0  0  0  0
  -25.3461   31.2412  -42.2047 C   0  0  0  0  0  0
  -25.8085   30.7036  -40.8809 C   0  0  0  0  0  0
  -25.1267   31.0046  -39.6985 C   0  0  0  0  0  0
  -25.5709   30.5095  -38.4804 C   0  0  0  0  0  0
  -26.6752   29.6642  -38.4322 C   0  0  0  0  0  0
  -27.3492   29.2968  -39.5968 C   0  0  0  0  0  0
  -26.9150   29.8381  -40.8145 C   0  0  0  0  0  0
  -28.4757   28.3390  -39.5603 C   0  0  0  0  0  0
  -28.6818   27.3872  -38.6147 C   0  0  0  0  0  0
  -29.8130   26.4849  -38.6390 C   0  0  0  0  0  0
  -29.9451   25.7062  -37.5544 N   0  0  0  0  0  0
  -30.6130   26.4690  -39.5810 O   0  0  0  0  0  0
  -30.9999   24.7776  -37.5214 O   0  0  0  0  0  0
  -24.9104   30.6836  -45.6868 C   0  0  0  0  0  0
  -23.8197   33.6142  -44.5507 C   0  0  0  0  0  0
  -24.4889   33.5967  -41.5470 C   0  0  0  0  0  0
  -25.7092   34.1170  -40.7481 C   0  0  0  0  0  0
  -25.7481   31.4673  -46.6917 C   0  0  0  0  0  0
  -25.2141   31.7746  -47.9467 C   0  0  0  0  0  0
  -25.9772   32.4762  -48.8765 C   0  0  0  0  0  0
  -27.2731   32.8690  -48.5497 C   0  0  0  0  0  0
  -27.8130   32.5644  -47.3028 C   0  0  0  0  0  0
  -27.0543   31.8560  -46.3757 C   0  0  0  0  0  0
  -26.6950   34.8990  -41.5082 N   0  0  0  0  0  0
  -27.4471   34.1010  -42.4906 C   0  0  0  0  0  0
  -28.6431   34.8691  -43.0955 C   0  0  0  0  0  0
  -29.4652   35.3961  -42.0585 O   0  0  0  0  0  0
  -28.7447   36.3281  -41.2584 C   0  0  0  0  0  0
  -27.5703   35.6126  -40.5625 C   0  0  0  0  0  0
  -24.2456   31.6246  -39.6972 H   0  0  0  0  0  0
  -25.0444   30.7865  -37.5810 H   0  0  0  0  0  0
  -27.0130   29.2861  -37.4840 H   0  0  0  0  0  0
  -27.4349   29.5781  -41.7246 H   0  0  0  0  0  0
  -29.1836   28.4570  -40.3691 H   0  0  0  0  0  0
  -27.9899   27.2690  -37.7933 H   0  0  0  0  0  0
  -29.3459   25.6594  -36.7416 H   0  0  0  0  0  0
  -30.5525   23.9221  -37.5810 H   0  0  0  0  0  0
  -23.8781   30.6122  -46.0319 H   0  0  0  0  0  0
  -25.2991   29.6690  -45.6827 H   0  0  0  0  0  0
  -23.6685   33.3889  -45.6065 H   0  0  0  0  0  0
  -24.4204   34.5230  -44.5059 H   0  0  0  0  0  0
  -22.8394   33.8490  -44.1353 H   0  0  0  0  0  0
  -23.6850   33.2951  -40.8780 H   0  0  0  0  0  0
  -24.0751   34.4320  -42.1099 H   0  0  0  0  0  0
  -26.2047   33.3178  -40.1981 H   0  0  0  0  0  0
  -25.2933   34.7728  -39.9810 H   0  0  0  0  0  0
  -24.2084   31.4751  -48.2033 H   0  0  0  0  0  0
  -25.5662   32.7169  -49.8459 H   0  0  0  0  0  0
  -27.8674   33.4123  -49.2698 H   0  0  0  0  0  0
  -28.8208   32.8699  -47.0620 H   0  0  0  0  0  0
  -27.4800   31.6144  -45.4125 H   0  0  0  0  0  0
  -26.7912   33.7666  -43.2913 H   0  0  0  0  0  0
  -27.8130   33.1972  -42.0020 H   0  0  0  0  0  0
  -29.2391   34.2063  -43.7223 H   0  0  0  0  0  0
  -28.2927   35.6682  -43.7520 H   0  0  0  0  0  0
  -29.4130   36.7538  -40.5106 H   0  0  0  0  0  0
  -28.3870   37.1657  -41.8610 H   0  0  0  0  0  0
  -27.9728   34.9041  -39.8369 H   0  0  0  0  0  0
  -26.9884   36.3279  -39.9810 H   0  0  0  0  0  0
  1  4  1  0  0  0
  1  5  1  0  0  0
  1 20  1  0  0  0
  2  5  2  0  0  0
  2  3  1  0  0  0
  3 18  1  0  0  0
  3  4  2  0  0  0
  4 19  1  0  0  0
  5  6  1  0  0  0
  6 11  1  0  0  0
  6  7  2  0  0  0
  7  8  1  0  0  0
  7 34  1  0  0  0
  8  9  2  0  0  0
  8 35  1  0  0  0
  9 10  1  0  0  0
  9 36  1  0  0  0
 10 11  2  0  0  0
 10 12  1  0  0  0
 11 37  1  0  0  0
 12 13  2  0  0  0
 12 38  1  0  0  0
 13 14  1  0  0  0
 13 39  1  0  0  0
 14 16  2  0  0  0
 14 15  1  0  0  0
 15 17  1  0  0  0
 15 40  1  0  0  0
 17 41  1  0  0  0
 18 22  1  0  0  0
 18 42  1  0  0  0
 18 43  1  0  0  0
 19 44  1  0  0  0
 19 45  1  0  0  0
 19 46  1  0  0  0
 20 21  1  0  0  0
 20 47  1  0  0  0
 20 48  1  0  0  0
 21 28  1  0  0  0
 21 49  1  0  0  0
 21 50  1  0  0  0
 22 23  2  0  0  0
 22 27  1  0  0  0
 23 24  1  0  0  0
 23 51  1  0  0  0
 24 25  2  0  0  0
 24 52  1  0  0  0
 25 26  1  0  0  0
 25 53  1  0  0  0
 26 27  2  0  0  0
 26 54  1  0  0  0
 27 55  1  0  0  0
 28 29  1  0  0  0
 28 33  1  0  0  0
 29 30  1  0  0  0
 29 56  1  0  0  0
 29 57  1  0  0  0
 30 31  1  0  0  0
 30 58  1  0  0  0
 30 59  1  0  0  0
 31 32  1  0  0  0
 32 33  1  0  0  0
 32 60  1  0  0  0
 32 61  1  0  0  0
 33 62  1  0  0  0
 33 63  1  0  0  0
M  END
> <s_m_entry_id>
52843

> <s_m_entry_name>
dock_pv.62

> <s_m_Source_Path>
/home/csk/Desktop/cluster/DUD-E-result/hdac8

> <s_m_Source_File>
dock_pv.maegz

> <i_m_Source_File_Index>
62

> <chembl_id>
CHEMBL1095437

> <chembl_pref_name>
None

> <i_lp_mmshare_version>
53161

> <i_f3d_flags>
0

> <r_lp_tautomer_probability>
1

> <s_lp_Force_Field>
OPLS_2005

> <r_lp_Energy>
46.512659

> <b_lp_Chiralities_Consistent>
1

> <s_lp_Variant>
CHEMBL3192_lig262-1

> <s_i_glide_gridfile>
glide-grid_3f07

> <i_i_glide_lignum>
275

> <i_i_glide_rotatable_bonds>
10

> <r_i_docking_score>
-8.14818171151998

> <r_i_glide_ligand_efficiency>
-0.246914597318787

> <r_i_glide_ligand_efficiency_sa>
-0.791987046554043

> <r_i_glide_ligand_efficiency_ln>
-1.81211342361505

> <r_i_glide_gscore>
-8.14818171151998

> <r_i_glide_lipo>
-1.65601394708198

> <r_i_glide_hbond>
-0.307201351975738

> <r_i_glide_metal>
-2.3

> <r_i_glide_rewards>
-0.531078037618094

> <r_i_glide_evdw>
-34.045970916748

> <r_i_glide_ecoul>
-16.0422630310059

> <r_i_glide_erotb>
0.903490934403666

> <r_i_glide_esite>
-0.148741308759554

> <r_i_glide_emodel>
-79.9800578310412

> <r_i_glide_energy>
-50.0882339477539

> <r_i_glide_einternal>
4.73603439331055

> <i_i_glide_confnum>
32

> <i_i_glide_posenum>
227

> <r_i_glide_eff_state_penalty>
0

> <s_user_duplicate_titles>
CHEMBL3192_lig262

> <s_m_subgroup_title>
dock_pv

> <s_m_subgroupid>
dock_pv

> <b_m_subgroup_collapsed>
1

$$$$
CHEMBL3192_lig489
                    3D
 Schrodinger Suite 2021-1.
 17 17  0  0  1  0            999 V2000
  -28.5894   28.1476  -39.0347 C   0  0  0  0  0  0
  -29.0130   29.0893  -39.9810 C   0  0  0  0  0  0
  -28.2423   30.2076  -40.2832 C   0  0  0  0  0  0
  -27.0305   30.3990  -39.6307 C   0  0  0  0  0  0
  -26.5952   29.4804  -38.6829 C   0  0  0  0  0  0
  -27.3743   28.3647  -38.3811 C   0  0  0  0  0  0
  -29.4354   26.9288  -38.7377 C   0  0  0  0  0  0
  -30.2130   26.4692  -39.5810 O   0  0  0  0  0  0
  -29.4302   26.4690  -37.4847 N   0  0  0  0  0  0
  -30.2130   25.3340  -37.1906 O   0  0  0  0  0  0
  -29.9478   28.9615  -40.5061 H   0  0  0  0  0  0
  -28.5781   30.9157  -41.0260 H   0  0  0  0  0  0
  -26.4203   31.2609  -39.8607 H   0  0  0  0  0  0
  -25.6461   29.6301  -38.1895 H   0  0  0  0  0  0
  -27.0130   27.6588  -37.6484 H   0  0  0  0  0  0
  -28.8980   26.8176  -36.6917 H   0  0  0  0  0  0
  -29.5760   24.6097  -37.1708 H   0  0  0  0  0  0
  1  2  2  0  0  0
  1  6  1  0  0  0
  1  7  1  0  0  0
  2  3  1  0  0  0
  2 11  1  0  0  0
  3  4  2  0  0  0
  3 12  1  0  0  0
  4  5  1  0  0  0
  4 13  1  0  0  0
  5  6  2  0  0  0
  5 14  1  0  0  0
  6 15  1  0  0  0
  7  8  2  0  0  0
  7  9  1  0  0  0
  9 10  1  0  0  0
  9 16  1  0  0  0
 10 17  1  0  0  0
M  END
> <s_m_entry_id>
52844

> <s_m_entry_name>
dock_pv.63

> <s_m_Source_Path>
/home/csk/Desktop/cluster/DUD-E-result/hdac8

> <s_m_Source_File>
dock_pv.maegz

> <i_m_Source_File_Index>
63

> <chembl_id>
CHEMBL16300

> <chembl_pref_name>
BENZOHYDROXAMATE

> <i_lp_mmshare_version>
53161

> <i_f3d_flags>
0

> <r_lp_tautomer_probability>
1

> <s_lp_Force_Field>
OPLS_2005

> <r_lp_Energy>
15.75182

> <b_lp_Chiralities_Consistent>
1

> <s_lp_Variant>
CHEMBL3192_lig489-1

> <s_i_glide_gridfile>
glide-grid_3f07

> <i_i_glide_lignum>
510

> <i_i_glide_rotatable_bonds>
3

> <r_i_docking_score>
-8.13944952241967

> <r_i_glide_ligand_efficiency>
-0.813944952241967

> <r_i_glide_ligand_efficiency_sa>
-1.75359123954051

> <r_i_glide_ligand_efficiency_ln>
-2.46456920661524

> <r_i_glide_gscore>
-8.13944952241967

> <r_i_glide_lipo>
-0.859701391583284

> <r_i_glide_hbond>
-0.605450652900556

> <r_i_glide_metal>
-2.3

> <r_i_glide_rewards>
-2.51494548474758

> <r_i_glide_evdw>
-8.87516975402832

> <r_i_glide_ecoul>
-13.1641111373901

> <r_i_glide_erotb>
0.75338542943489

> <r_i_glide_esite>
-0.194362264313204

> <r_i_glide_emodel>
-37.5094262376117

> <r_i_glide_energy>
-22.0392808914185

> <r_i_glide_einternal>
1.48940563201904

> <i_i_glide_confnum>
1

> <i_i_glide_posenum>
190

> <r_i_glide_eff_state_penalty>
0

> <s_user_duplicate_titles>
CHEMBL3192_lig489

> <s_m_subgroup_title>
dock_pv

> <s_m_subgroupid>
dock_pv

> <b_m_subgroup_collapsed>
1

$$$$
CHEMBL3192_lig425
                    3D
 Schrodinger Suite 2021-1.
 35 36  0  0  1  0            999 V2000
  -22.2653   31.6690  -42.7993 C   0  0  0  0  0  0
  -22.9298   31.5156  -44.0174 C   0  0  0  0  0  0
  -24.3260   31.6058  -44.0639 C   0  0  0  0  0  0
  -25.0428   31.8616  -42.8956 C   0  0  0  0  0  0
  -24.3851   32.0065  -41.6685 C   0  0  0  0  0  0
  -22.9897   31.9115  -41.6296 C   0  0  0  0  0  0
  -25.1779   32.2899  -40.3935 C   0  0  0  0  0  0
  -26.1977   31.2105  -40.0422 C   0  0  0  0  0  0
  -25.8914   30.2202  -39.1060 C   0  0  0  0  0  0
  -26.8171   29.2154  -38.8256 C   0  0  0  0  0  0
  -28.0455   29.1826  -39.4928 C   0  0  0  0  0  0
  -28.3652   30.2082  -40.3866 C   0  0  0  0  0  0
  -27.4537   31.2232  -40.6501 C   0  0  0  0  0  0
  -29.0392   28.1106  -39.3003 C   0  0  0  0  0  0
  -29.0889   27.1631  -38.3362 C   0  0  0  0  0  0
  -30.1648   26.1930  -38.2640 C   0  0  0  0  0  0
  -30.9843   26.0690  -39.1810 O   0  0  0  0  0  0
  -30.2130   25.4717  -37.1321 N   0  0  0  0  0  0
  -31.1921   24.4690  -37.0205 O   0  0  0  0  0  0
  -22.2131   31.2690  -45.1596 O   0  0  0  0  0  0
  -25.1924   31.3960  -45.5478 Cl  0  0  0  0  0  0
  -21.1881   31.6020  -42.7534 H   0  0  0  0  0  0
  -26.1170   31.9410  -42.9528 H   0  0  0  0  0  0
  -22.4624   32.0304  -40.6932 H   0  0  0  0  0  0
  -25.6902   33.2467  -40.5055 H   0  0  0  0  0  0
  -24.4939   32.4344  -39.5562 H   0  0  0  0  0  0
  -24.9299   30.2150  -38.6125 H   0  0  0  0  0  0
  -26.5569   28.4466  -38.1148 H   0  0  0  0  0  0
  -29.3163   30.2176  -40.9000 H   0  0  0  0  0  0
  -27.7139   32.0014  -41.3515 H   0  0  0  0  0  0
  -29.8130   28.1162  -40.0512 H   0  0  0  0  0  0
  -28.3251   27.1179  -37.5810 H   0  0  0  0  0  0
  -29.5784   25.5032  -36.3454 H   0  0  0  0  0  0
  -30.7037   23.6521  -37.1810 H   0  0  0  0  0  0
  -21.2899   31.0134  -45.0365 H   0  0  0  0  0  0
  1  2  2  0  0  0
  1  6  1  0  0  0
  1 22  1  0  0  0
  2  3  1  0  0  0
  2 20  1  0  0  0
  3  4  2  0  0  0
  3 21  1  0  0  0
  4  5  1  0  0  0
  4 23  1  0  0  0
  5  6  2  0  0  0
  5  7  1  0  0  0
  6 24  1  0  0  0
  7  8  1  0  0  0
  7 25  1  0  0  0
  7 26  1  0  0  0
  8  9  2  0  0  0
  8 13  1  0  0  0
  9 10  1  0  0  0
  9 27  1  0  0  0
 10 11  2  0  0  0
 10 28  1  0  0  0
 11 12  1  0  0  0
 11 14  1  0  0  0
 12 13  2  0  0  0
 12 29  1  0  0  0
 13 30  1  0  0  0
 14 15  2  0  0  0
 14 31  1  0  0  0
 15 16  1  0  0  0
 15 32  1  0  0  0
 16 17  2  0  0  0
 16 18  1  0  0  0
 18 19  1  0  0  0
 18 33  1  0  0  0
 19 34  1  0  0  0
 20 35  1  0  0  0
M  END
> <s_m_entry_id>
52845

> <s_m_entry_name>
dock_pv.64

> <s_m_Source_Path>
/home/csk/Desktop/cluster/DUD-E-result/hdac8

> <s_m_Source_File>
dock_pv.maegz

> <i_m_Source_File_Index>
64

> <chembl_id>
CHEMBL2235252

> <chembl_pref_name>
None

> <i_lp_mmshare_version>
53161

> <i_f3d_flags>
0

> <r_lp_tautomer_probability>
0.999999999997365

> <s_lp_Force_Field>
OPLS_2005

> <r_lp_Energy>
19.247885

> <b_lp_Chiralities_Consistent>
1

> <s_lp_Variant>
CHEMBL3192_lig425-1

> <s_i_glide_gridfile>
glide-grid_3f07

> <i_i_glide_lignum>
444

> <i_i_glide_rotatable_bonds>
7

> <r_i_docking_score>
-8.13695156110818

> <r_i_glide_ligand_efficiency>
-0.387473883862294

> <r_i_glide_ligand_efficiency_sa>
-1.0690110648191

> <r_i_glide_ligand_efficiency_ln>
-2.01184483122519

> <r_i_glide_gscore>
-8.13695156110818

> <r_i_glide_lipo>
-0.941596429791344

> <r_i_glide_hbond>
-0.463630974230135

> <r_i_glide_metal>
-2.3

> <r_i_glide_rewards>
-1.61229802078088

> <r_i_glide_evdw>
-29.7289237976074

> <r_i_glide_ecoul>
-14.8793592453003

> <r_i_glide_erotb>
0.99892394036959

> <r_i_glide_esite>
-0.1

> <r_i_glide_emodel>
-70.8091551331762

> <r_i_glide_energy>
-44.6082830429077

> <r_i_glide_einternal>
1.90811622142792

> <i_i_glide_confnum>
27

> <i_i_glide_posenum>
335

> <r_i_glide_eff_state_penalty>
0

> <s_user_duplicate_titles>
CHEMBL3192_lig425

> <s_m_subgroup_title>
dock_pv

> <s_m_subgroupid>
dock_pv

> <b_m_subgroup_collapsed>
1

$$$$
CHEMBL3192_lig1034
                    3D
 Schrodinger Suite 2021-1.
 47 49  0  0  1  0            999 V2000
  -22.2768   30.7557  -48.3441 C   0  0  0  0  0  0
  -23.6626   31.2690  -47.9438 C   0  0  0  0  0  0
  -23.9505   30.8690  -46.6056 O   0  0  0  0  0  0
  -25.0558   31.4128  -45.9811 C   0  0  0  0  0  0
  -26.0278   32.2003  -46.6199 C   0  0  0  0  0  0
  -27.0366   32.7351  -45.8189 C   0  0  0  0  0  0
  -28.1431   33.5941  -46.3982 C   0  0  0  0  0  0
  -27.0808   32.5319  -44.4796 N   0  0  0  0  0  0
  -26.1211   31.7301  -43.9466 C   0  0  0  0  0  0
  -26.1063   31.4928  -42.5653 N   0  0  0  0  0  0
  -26.9420   32.2205  -41.6012 C   0  0  2  0  0  0
  -26.0961   32.6195  -40.3810 C   0  0  0  0  0  0
  -25.5370   31.3814  -39.6560 C   0  0  0  0  0  0
  -26.5938   30.2955  -39.4470 C   0  0  0  0  0  0
  -26.3346   29.2690  -38.5561 C   0  0  0  0  0  0
  -27.2308   28.2236  -38.3810 C   0  0  0  0  0  0
  -28.4455   28.1784  -39.0396 C   0  0  0  0  0  0
  -28.7158   29.2058  -39.9527 C   0  0  0  0  0  0
  -27.8056   30.2582  -40.1661 C   0  0  0  0  0  0
  -28.1460   31.3631  -41.1477 C   0  0  0  0  0  0
  -29.4130   27.0505  -38.7517 C   0  0  0  0  0  0
  -30.2385   26.6859  -39.5810 O   0  0  0  0  0  0
  -29.4131   26.5250  -37.5223 N   0  0  0  0  0  0
  -30.2132   25.3924  -37.2710 O   0  0  0  0  0  0
  -25.1221   31.1395  -44.6510 N   0  0  0  0  0  0
  -21.9938   31.1232  -49.3306 H   0  0  0  0  0  0
  -21.5164   31.0858  -47.6353 H   0  0  0  0  0  0
  -22.2522   29.6690  -48.3810 H   0  0  0  0  0  0
  -24.4179   30.8775  -48.6274 H   0  0  0  0  0  0
  -23.6668   32.3578  -48.0262 H   0  0  0  0  0  0
  -26.0047   32.4037  -47.6790 H   0  0  0  0  0  0
  -28.1624   33.5408  -47.4872 H   0  0  0  0  0  0
  -29.1178   33.2685  -46.0330 H   0  0  0  0  0  0
  -28.0004   34.6356  -46.1097 H   0  0  0  0  0  0
  -25.4706   30.7943  -42.2120 H   0  0  0  0  0  0
  -27.3324   33.1212  -42.0776 H   0  0  0  0  0  0
  -26.7031   33.2019  -39.6860 H   0  0  0  0  0  0
  -25.2774   33.2783  -40.6756 H   0  0  0  0  0  0
  -25.0993   31.6690  -38.6992 H   0  0  0  0  0  0
  -24.7180   30.9574  -40.2384 H   0  0  0  0  0  0
  -25.4018   29.2650  -38.0107 H   0  0  0  0  0  0
  -26.9987   27.4493  -37.6666 H   0  0  0  0  0  0
  -29.6503   29.2086  -40.4959 H   0  0  0  0  0  0
  -28.6130   30.8690  -41.9810 H   0  0  0  0  0  0
  -28.8952   32.0081  -40.6922 H   0  0  0  0  0  0
  -28.8446   26.8067  -36.7280 H   0  0  0  0  0  0
  -29.5818   24.6647  -37.2177 H   0  0  0  0  0  0
  1  2  1  0  0  0
  1 26  1  0  0  0
  1 27  1  0  0  0
  1 28  1  0  0  0
  2  3  1  0  0  0
  2 29  1  0  0  0
  2 30  1  0  0  0
  3  4  1  0  0  0
  4  5  2  0  0  0
  4 25  1  0  0  0
  5  6  1  0  0  0
  5 31  1  0  0  0
  6  7  1  0  0  0
  6  8  2  0  0  0
  7 32  1  0  0  0
  7 33  1  0  0  0
  7 34  1  0  0  0
  8  9  1  0  0  0
  9 10  1  0  0  0
  9 25  2  0  0  0
 10 11  1  0  0  0
 10 35  1  0  0  0
 11 12  1  0  0  0
 11 20  1  0  0  0
 11 36  1  0  0  0
 12 13  1  0  0  0
 12 37  1  0  0  0
 12 38  1  0  0  0
 13 14  1  0  0  0
 13 39  1  0  0  0
 13 40  1  0  0  0
 14 15  2  0  0  0
 14 19  1  0  0  0
 15 16  1  0  0  0
 15 41  1  0  0  0
 16 17  2  0  0  0
 16 42  1  0  0  0
 17 18  1  0  0  0
 17 21  1  0  0  0
 18 19  2  0  0  0
 18 43  1  0  0  0
 19 20  1  0  0  0
 20 44  1  0  0  0
 20 45  1  0  0  0
 21 22  2  0  0  0
 21 23  1  0  0  0
 23 24  1  0  0  0
 23 46  1  0  0  0
 24 47  1  0  0  0
M  END
> <s_m_entry_id>
52846

> <s_m_entry_name>
dock_pv.65

> <s_m_Source_Path>
/home/csk/Desktop/cluster/DUD-E-result/hdac8

> <s_m_Source_File>
dock_pv.maegz

> <i_m_Source_File_Index>
65

> <chembl_id>
CHEMBL3694287

> <chembl_pref_name>
None

> <i_lp_mmshare_version>
53161

> <i_f3d_flags>
0

> <r_lp_tautomer_probability>
0.999999917912647

> <s_lp_Force_Field>
OPLS_2005

> <r_lp_Energy>
21.406869

> <b_lp_Chiralities_Consistent>
1

> <s_lp_Variant>
CHEMBL3192_lig1034-1

> <s_i_glide_gridfile>
glide-grid_3f07

> <i_i_glide_lignum>
1107

> <i_i_glide_rotatable_bonds>
7

> <r_i_docking_score>
-8.13571118934011

> <r_i_glide_ligand_efficiency>
-0.325428447573604

> <r_i_glide_ligand_efficiency_sa>
-0.951558552203312

> <r_i_glide_ligand_efficiency_ln>
-1.92840735946389

> <r_i_glide_gscore>
-8.13571118934011

> <r_i_glide_lipo>
-1.29476590634201

> <r_i_glide_hbond>
-0.607696731726628

> <r_i_glide_metal>
-2.3

> <r_i_glide_rewards>
-1.33202387891144

> <r_i_glide_evdw>
-21.5938262939453

> <r_i_glide_ecoul>
-14.2083425521851

> <r_i_glide_erotb>
0.808731920648313

> <r_i_glide_esite>
-0.199013895483316

> <r_i_glide_emodel>
-52.9257193419923

> <r_i_glide_energy>
-35.8021688461304

> <r_i_glide_einternal>
5.52951812744141

> <i_i_glide_confnum>
10

> <i_i_glide_posenum>
157

> <r_i_glide_eff_state_penalty>
0

> <s_user_duplicate_titles>
CHEMBL3192_lig1034

> <s_m_subgroup_title>
dock_pv

> <s_m_subgroupid>
dock_pv

> <b_m_subgroup_collapsed>
1

$$$$
CHEMBL3192_lig574
                    3D
 Schrodinger Suite 2021-1.
 54 55  0  0  1  0            999 V2000
  -26.4431   31.2692  -47.9402 C   0  0  0  0  0  0
  -25.2638   31.5023  -48.6467 C   0  0  0  0  0  0
  -24.0527   31.6697  -47.9739 C   0  0  0  0  0  0
  -24.0181   31.6045  -46.5833 C   0  0  0  0  0  0
  -25.1922   31.3505  -45.8728 C   0  0  0  0  0  0
  -26.4095   31.1953  -46.5495 C   0  0  0  0  0  0
  -25.1364   31.3656  -44.4742 N   0  0  0  0  0  0
  -25.7317   30.4970  -43.6316 C   0  0  0  0  0  0
  -25.8434   30.9572  -42.1470 C   0  0  2  0  0  0
  -26.2126   29.4170  -43.9814 O   0  0  0  0  0  0
  -26.5345   29.9039  -41.2331 C   0  0  0  0  0  0
  -26.5105   32.2641  -42.0329 N   0  0  0  0  0  0
  -26.6978   30.3483  -39.7595 C   0  0  0  0  0  0
  -27.1201   29.2257  -38.7915 C   0  0  0  0  0  0
  -25.9803   33.4678  -42.3230 C   0  0  0  0  0  0
  -26.9483   34.6698  -42.2825 C   0  0  1  0  0  0
  -24.8029   33.6040  -42.6603 O   0  0  0  0  0  0
  -28.4670   28.5467  -39.1226 C   0  0  0  0  0  0
  -28.9454   27.5924  -37.9998 C   0  0  0  0  0  0
  -29.9047   26.4690  -38.4177 C   0  0  0  0  0  0
  -30.1920   25.5476  -37.4843 N   0  0  0  0  0  0
  -30.4114   26.4690  -39.5468 O   0  0  0  0  0  0
  -31.0131   24.4694  -37.8430 O   0  0  0  0  0  0
  -27.2986   35.1272  -40.8628 C   0  0  0  0  0  0
  -26.9208   36.4128  -40.7816 N   0  0  0  0  0  0
  -26.0937   36.8888  -41.8811 C   0  0  0  0  0  0
  -26.4325   35.9250  -43.0013 C   0  0  0  0  0  0
  -27.8131   34.4418  -39.9823 O   0  0  0  0  0  0
  -27.3808   31.1510  -48.4646 H   0  0  0  0  0  0
  -25.2903   31.5654  -49.7254 H   0  0  0  0  0  0
  -23.1455   31.8610  -48.5295 H   0  0  0  0  0  0
  -23.0815   31.7510  -46.0627 H   0  0  0  0  0  0
  -27.3271   31.0270  -46.0036 H   0  0  0  0  0  0
  -24.6872   32.1724  -44.0552 H   0  0  0  0  0  0
  -24.8208   31.0622  -41.7775 H   0  0  0  0  0  0
  -27.5231   29.6683  -41.6316 H   0  0  0  0  0  0
  -25.9594   28.9768  -41.2627 H   0  0  0  0  0  0
  -27.4713   32.2221  -41.7295 H   0  0  0  0  0  0
  -25.7545   30.7680  -39.4053 H   0  0  0  0  0  0
  -27.4226   31.1602  -39.6955 H   0  0  0  0  0  0
  -26.3357   28.4691  -38.7577 H   0  0  0  0  0  0
  -27.1582   29.6449  -37.7864 H   0  0  0  0  0  0
  -27.8620   34.3138  -42.7593 H   0  0  0  0  0  0
  -29.2297   29.3046  -39.3090 H   0  0  0  0  0  0
  -28.3375   27.9985  -40.0554 H   0  0  0  0  0  0
  -28.0656   27.1111  -37.5815 H   0  0  0  0  0  0
  -29.4130   28.1676  -37.1975 H   0  0  0  0  0  0
  -29.8182   25.4769  -36.5460 H   0  0  0  0  0  0
  -30.4043   23.7159  -37.8836 H   0  0  0  0  0  0
  -27.0146   36.9437  -39.9241 H   0  0  0  0  0  0
  -26.3357   37.9213  -42.1396 H   0  0  0  0  0  0
  -25.0384   36.8512  -41.5988 H   0  0  0  0  0  0
  -25.5988   35.7768  -43.6913 H   0  0  0  0  0  0
  -27.2416   36.3465  -43.6020 H   0  0  0  0  0  0
  1  2  2  0  0  0
  1  6  1  0  0  0
  1 29  1  0  0  0
  2  3  1  0  0  0
  2 30  1  0  0  0
  3  4  2  0  0  0
  3 31  1  0  0  0
  4  5  1  0  0  0
  4 32  1  0  0  0
  5  6  2  0  0  0
  5  7  1  0  0  0
  6 33  1  0  0  0
  7  8  1  0  0  0
  7 34  1  0  0  0
  8  9  1  0  0  0
  8 10  2  0  0  0
  9 11  1  0  0  0
  9 12  1  0  0  0
  9 35  1  0  0  0
 11 13  1  0  0  0
 11 36  1  0  0  0
 11 37  1  0  0  0
 12 15  1  0  0  0
 12 38  1  0  0  0
 13 14  1  0  0  0
 13 39  1  0  0  0
 13 40  1  0  0  0
 14 18  1  0  0  0
 14 41  1  0  0  0
 14 42  1  0  0  0
 15 16  1  0  0  0
 15 17  2  0  0  0
 16 24  1  0  0  0
 16 27  1  0  0  0
 16 43  1  0  0  0
 18 19  1  0  0  0
 18 44  1  0  0  0
 18 45  1  0  0  0
 19 20  1  0  0  0
 19 46  1  0  0  0
 19 47  1  0  0  0
 20 21  1  0  0  0
 20 22  2  0  0  0
 21 23  1  0  0  0
 21 48  1  0  0  0
 23 49  1  0  0  0
 24 25  1  0  0  0
 24 28  2  0  0  0
 25 26  1  0  0  0
 25 50  1  0  0  0
 26 27  1  0  0  0
 26 51  1  0  0  0
 26 52  1  0  0  0
 27 53  1  0  0  0
 27 54  1  0  0  0
M  END
> <s_m_entry_id>
52847

> <s_m_entry_name>
dock_pv.66

> <s_m_Source_Path>
/home/csk/Desktop/cluster/DUD-E-result/hdac8

> <s_m_Source_File>
dock_pv.maegz

> <i_m_Source_File_Index>
66

> <chembl_id>
CHEMBL3098693

> <chembl_pref_name>
None

> <i_lp_mmshare_version>
53161

> <i_f3d_flags>
0

> <r_lp_tautomer_probability>
1

> <s_lp_Force_Field>
OPLS_2005

> <r_lp_Energy>
30.031054

> <b_lp_Chiralities_Consistent>
1

> <s_lp_Variant>
CHEMBL3192_lig574-2

> <s_i_glide_gridfile>
glide-grid_3f07

> <i_i_glide_lignum>
599

> <i_i_glide_rotatable_bonds>
14

> <r_i_docking_score>
-8.12831614107971

> <r_i_glide_ligand_efficiency>
-0.290297005038561

> <r_i_glide_ligand_efficiency_sa>
-0.881512683089501

> <r_i_glide_ligand_efficiency_ln>
-1.87625402309342

> <r_i_glide_gscore>
-8.12831614107971

> <r_i_glide_lipo>
-1.10171488379762

> <r_i_glide_hbond>
-0.741434441289139

> <r_i_glide_metal>
-2.3

> <r_i_glide_rewards>
-0.567939897570455

> <r_i_glide_evdw>
-29.0346431732178

> <r_i_glide_ecoul>
-21.5871829986572

> <r_i_glide_erotb>
1.40744517913091

> <r_i_glide_esite>
-0.13486248909393

> <r_i_glide_emodel>
-78.3563012716468

> <r_i_glide_energy>
-50.621826171875

> <r_i_glide_einternal>
10.6746110916138

> <i_i_glide_confnum>
4

> <i_i_glide_posenum>
209

> <r_i_glide_eff_state_penalty>
0

> <s_user_duplicate_titles>
CHEMBL3192_lig574

> <s_m_subgroup_title>
dock_pv

> <s_m_subgroupid>
dock_pv

> <b_m_subgroup_collapsed>
1

$$$$
CHEMBL3192_lig202
                    3D
 Schrodinger Suite 2021-1.
 44 46  0  0  1  0            999 V2000
  -28.2884   29.8429  -40.7299 C   0  0  0  0  0  0
  -28.0577   29.0910  -39.5826 C   0  0  0  0  0  0
  -26.8645   29.2886  -38.8746 C   0  0  0  0  0  0
  -27.3474   30.7612  -41.1778 C   0  0  0  0  0  0
  -26.1463   30.9434  -40.4921 C   0  0  0  0  0  0
  -25.8899   30.1889  -39.3296 C   0  0  0  0  0  0
  -23.6823   31.4219  -40.6383 C   0  0  2  0  0  0
  -25.0984   31.9311  -40.9865 C   0  0  0  0  0  0
  -23.5881   31.2689  -39.1809 N   0  0  1  0  0  0
  -24.5179   30.2689  -38.6445 C   0  0  0  0  0  0
  -22.6180   32.4038  -41.1926 C   0  0  0  0  0  0
  -22.2335   32.2353  -42.3517 O   0  0  0  0  0  0
  -22.1512   33.3801  -40.3809 N   0  0  0  0  0  0
  -21.1973   34.3719  -40.6709 C   0  0  0  0  0  0
  -20.4633   34.8852  -39.5963 C   0  0  0  0  0  0
  -19.5141   35.8870  -39.8027 C   0  0  0  0  0  0
  -19.2945   36.3869  -41.0857 C   0  0  0  0  0  0
  -20.0270   35.8893  -42.1626 C   0  0  0  0  0  0
  -20.9778   34.8888  -41.9585 C   0  0  0  0  0  0
  -23.4619   30.4690  -41.1174 H   0  0  0  0  0  0
  -29.0338   28.1705  -39.2693 O   0  0  0  0  0  0
  -29.0332   27.4716  -38.0235 C   0  0  0  0  0  0
  -30.0221   26.2960  -38.1167 C   0  0  0  0  0  0
  -30.6130   26.0690  -39.1810 O   0  0  0  0  0  0
  -30.2132   25.5700  -37.0025 N   0  0  0  0  0  0
  -31.0816   24.4692  -37.0721 O   0  0  0  0  0  0
  -18.6100   36.5067  -38.4701 Cl  0  0  0  0  0  0
  -29.2026   29.7013  -41.2872 H   0  0  0  0  0  0
  -26.6502   28.7077  -37.9918 H   0  0  0  0  0  0
  -27.5457   31.3253  -42.0769 H   0  0  0  0  0  0
  -25.2052   32.1006  -42.0597 H   0  0  0  0  0  0
  -25.2815   32.8870  -40.4897 H   0  0  0  0  0  0
  -22.6475   31.0526  -38.8771 H   0  0  0  0  0  0
  -24.6375   30.4706  -37.5810 H   0  0  0  0  0  0
  -24.0471   29.2898  -38.7257 H   0  0  0  0  0  0
  -22.4936   33.3705  -39.4234 H   0  0  0  0  0  0
  -20.6159   34.5050  -38.5953 H   0  0  0  0  0  0
  -18.5595   37.1619  -41.2458 H   0  0  0  0  0  0
  -19.8627   36.2820  -43.1553 H   0  0  0  0  0  0
  -21.5445   34.5355  -42.8064 H   0  0  0  0  0  0
  -29.3847   28.1491  -37.2418 H   0  0  0  0  0  0
  -28.0466   27.0770  -37.7915 H   0  0  0  0  0  0
  -29.7724   25.6797  -36.0980 H   0  0  0  0  0  0
  -30.4894   23.7134  -37.1813 H   0  0  0  0  0  0
  1  4  1  0  0  0
  1  2  2  0  0  0
  1 28  1  0  0  0
  2  3  1  0  0  0
  2 21  1  0  0  0
  3  6  2  0  0  0
  3 29  1  0  0  0
  4  5  2  0  0  0
  4 30  1  0  0  0
  5  8  1  0  0  0
  5  6  1  0  0  0
  6 10  1  0  0  0
  7  8  1  0  0  0
  7 20  1  0  0  0
  7  9  1  0  0  0
  7 11  1  0  0  0
  8 31  1  0  0  0
  8 32  1  0  0  0
  9 10  1  0  0  0
  9 33  1  0  0  0
 10 34  1  0  0  0
 10 35  1  0  0  0
 11 12  2  0  0  0
 11 13  1  0  0  0
 13 14  1  0  0  0
 13 36  1  0  0  0
 14 15  2  0  0  0
 14 19  1  0  0  0
 15 16  1  0  0  0
 15 37  1  0  0  0
 16 17  2  0  0  0
 16 27  1  0  0  0
 17 18  1  0  0  0
 17 38  1  0  0  0
 18 19  2  0  0  0
 18 39  1  0  0  0
 19 40  1  0  0  0
 21 22  1  0  0  0
 22 23  1  0  0  0
 22 41  1  0  0  0
 22 42  1  0  0  0
 23 24  2  0  0  0
 23 25  1  0  0  0
 25 26  1  0  0  0
 25 43  1  0  0  0
 26 44  1  0  0  0
M  END
> <s_m_entry_id>
52848

> <s_m_entry_name>
dock_pv.67

> <s_m_Source_Path>
/home/csk/Desktop/cluster/DUD-E-result/hdac8

> <s_m_Source_File>
dock_pv.maegz

> <i_m_Source_File_Index>
67

> <chembl_id>
CHEMBL608741

> <chembl_pref_name>
None

> <i_lp_mmshare_version>
53161

> <i_f3d_flags>
0

> <r_lp_tautomer_probability>
1

> <s_lp_Force_Field>
OPLS_2005

> <r_lp_Energy>
36.284332

> <b_lp_Chiralities_Consistent>
1

> <s_lp_Variant>
CHEMBL3192_lig202-1

> <s_i_glide_gridfile>
glide-grid_3f07

> <i_i_glide_lignum>
212

> <i_i_glide_rotatable_bonds>
8

> <r_i_docking_score>
-8.1226990240611

> <r_i_glide_ligand_efficiency>
-0.312411500925427

> <r_i_glide_ligand_efficiency_sa>
-0.925517842211681

> <r_i_glide_ligand_efficiency_ln>
-1.90758921305136

> <r_i_glide_gscore>
-8.1226990240611

> <r_i_glide_lipo>
-1.08054306347323

> <r_i_glide_hbond>
-0.449923837138821

> <r_i_glide_metal>
-2.3

> <r_i_glide_rewards>
-1.0089076071931

> <r_i_glide_evdw>
-28.8431529998779

> <r_i_glide_ecoul>
-17.3760280609131

> <r_i_glide_erotb>
0.959114962006571

> <r_i_glide_esite>
-0.193877619131656

> <r_i_glide_emodel>
-69.0562767708516

> <r_i_glide_energy>
-46.219181060791

> <r_i_glide_einternal>
6.05910778045654

> <i_i_glide_confnum>
23

> <i_i_glide_posenum>
217

> <r_i_glide_eff_state_penalty>
0

> <s_user_duplicate_titles>
CHEMBL3192_lig202

> <s_m_subgroup_title>
dock_pv

> <s_m_subgroupid>
dock_pv

> <b_m_subgroup_collapsed>
1

$$$$
CHEMBL3192_lig63
                    3D
 Schrodinger Suite 2021-1.
 37 39  0  0  1  0            999 V2000
  -26.1727   32.5811  -47.1072 C   0  0  0  0  0  0
  -25.7498   31.3053  -46.7423 C   0  0  0  0  0  0
  -25.7525   30.8765  -45.4140 C   0  0  0  0  0  0
  -26.6224   33.4920  -46.1527 C   0  0  0  0  0  0
  -26.6538   33.1036  -44.8053 C   0  0  0  0  0  0
  -26.2130   31.7886  -44.4578 C   0  0  0  0  0  0
  -26.3613   31.6717  -43.0912 N   0  0  0  0  0  0
  -26.9015   32.8267  -42.5679 C   0  0  0  0  0  0
  -27.0588   33.7460  -43.5892 C   0  0  0  0  0  0
  -27.2467   32.8822  -41.1423 C   0  0  0  0  0  0
  -27.8129   33.8685  -40.6692 O   0  0  0  0  0  0
  -26.9643   31.6915  -40.3025 C   0  0  0  0  0  0
  -27.8914   30.6454  -40.2462 C   0  0  0  0  0  0
  -27.6385   29.5073  -39.4727 C   0  0  0  0  0  0
  -26.4386   29.4304  -38.7616 C   0  0  0  0  0  0
  -25.5099   30.4693  -38.8133 C   0  0  0  0  0  0
  -25.7716   31.6020  -39.5810 C   0  0  0  0  0  0
  -28.6583   28.4468  -39.4212 C   0  0  0  0  0  0
  -28.7428   27.4143  -38.5479 C   0  0  0  0  0  0
  -29.8319   26.4692  -38.6201 C   0  0  0  0  0  0
  -29.9694   25.6690  -37.5524 N   0  0  0  0  0  0
  -30.6131   26.4690  -39.5810 O   0  0  0  0  0  0
  -31.0120   24.7254  -37.5492 O   0  0  0  0  0  0
  -26.1524   32.8679  -48.1490 H   0  0  0  0  0  0
  -25.4130   30.6314  -47.5156 H   0  0  0  0  0  0
  -25.4236   29.8825  -45.1487 H   0  0  0  0  0  0
  -26.9501   34.4772  -46.4495 H   0  0  0  0  0  0
  -26.1478   30.8697  -42.5154 H   0  0  0  0  0  0
  -27.4543   34.7446  -43.4721 H   0  0  0  0  0  0
  -28.8144   30.7182  -40.8061 H   0  0  0  0  0  0
  -26.2130   28.5636  -38.1602 H   0  0  0  0  0  0
  -24.5872   30.3996  -38.2556 H   0  0  0  0  0  0
  -25.0478   32.4074  -39.5958 H   0  0  0  0  0  0
  -29.4126   28.5403  -40.1908 H   0  0  0  0  0  0
  -28.0191   27.2704  -37.7589 H   0  0  0  0  0  0
  -29.3881   25.6252  -36.7263 H   0  0  0  0  0  0
  -30.5503   23.8759  -37.5823 H   0  0  0  0  0  0
  1  2  1  0  0  0
  1  4  2  0  0  0
  1 24  1  0  0  0
  2  3  2  0  0  0
  2 25  1  0  0  0
  3  6  1  0  0  0
  3 26  1  0  0  0
  4  5  1  0  0  0
  4 27  1  0  0  0
  5  9  1  0  0  0
  5  6  2  0  0  0
  6  7  1  0  0  0
  7  8  1  0  0  0
  7 28  1  0  0  0
  8 10  1  0  0  0
  8  9  2  0  0  0
  9 29  1  0  0  0
 10 11  2  0  0  0
 10 12  1  0  0  0
 12 13  2  0  0  0
 12 17  1  0  0  0
 13 14  1  0  0  0
 13 30  1  0  0  0
 14 15  2  0  0  0
 14 18  1  0  0  0
 15 16  1  0  0  0
 15 31  1  0  0  0
 16 17  2  0  0  0
 16 32  1  0  0  0
 17 33  1  0  0  0
 18 19  2  0  0  0
 18 34  1  0  0  0
 19 20  1  0  0  0
 19 35  1  0  0  0
 20 21  1  0  0  0
 20 22  2  0  0  0
 21 23  1  0  0  0
 21 36  1  0  0  0
 23 37  1  0  0  0
M  END
> <s_m_entry_id>
52849

> <s_m_entry_name>
dock_pv.68

> <s_m_Source_Path>
/home/csk/Desktop/cluster/DUD-E-result/hdac8

> <s_m_Source_File>
dock_pv.maegz

> <i_m_Source_File_Index>
68

> <chembl_id>
CHEMBL242533

> <chembl_pref_name>
None

> <i_lp_mmshare_version>
53161

> <i_f3d_flags>
0

> <r_lp_tautomer_probability>
1

> <s_lp_Force_Field>
OPLS_2005

> <r_lp_Energy>
25.871424

> <b_lp_Chiralities_Consistent>
1

> <s_lp_Variant>
CHEMBL3192_lig63-1

> <s_i_glide_gridfile>
glide-grid_3f07

> <i_i_glide_lignum>
65

> <i_i_glide_rotatable_bonds>
6

> <r_i_docking_score>
-8.12209867810598

> <r_i_glide_ligand_efficiency>
-0.353134725135043

> <r_i_glide_ligand_efficiency_sa>
-1.00426818320088

> <r_i_glide_ligand_efficiency_ln>
-1.96399710748504

> <r_i_glide_gscore>
-8.12209867810598

> <r_i_glide_lipo>
-1.19052350260858

> <r_i_glide_hbond>
-0.319946673392289

> <r_i_glide_metal>
-2.3

> <r_i_glide_rewards>
-1.55051268713889

> <r_i_glide_evdw>
-26.41086769104

> <r_i_glide_ecoul>
-14.9459629058838

> <r_i_glide_erotb>
0.984246940731345

> <r_i_glide_esite>
-0.182924935263008

> <r_i_glide_emodel>
-64.8804616211719

> <r_i_glide_energy>
-41.3568305969238

> <r_i_glide_einternal>
7.67520713806152

> <i_i_glide_confnum>
46

> <i_i_glide_posenum>
95

> <r_i_glide_eff_state_penalty>
0

> <s_user_duplicate_titles>
CHEMBL3192_lig63,390739

> <s_m_subgroup_title>
dock_pv

> <s_m_subgroupid>
dock_pv

> <b_m_subgroup_collapsed>
1

$$$$
CHEMBL3192_lig186
                    3D
 Schrodinger Suite 2021-1.
 44 46  0  0  1  0            999 V2000
  -28.1916   29.7604  -40.7550 C   0  0  0  0  0  0
  -28.0195   29.0614  -39.5648 C   0  0  0  0  0  0
  -26.8491   29.2697  -38.8236 C   0  0  0  0  0  0
  -27.2036   30.6175  -41.2217 C   0  0  0  0  0  0
  -26.0208   30.7988  -40.5048 C   0  0  0  0  0  0
  -25.8368   30.1230  -39.2816 C   0  0  0  0  0  0
  -23.5413   31.2602  -40.4915 C   0  0  2  0  0  0
  -24.9203   31.7096  -41.0284 C   0  0  0  0  0  0
  -23.5874   31.2689  -39.0314 N   0  0  1  0  0  0
  -24.4998   30.2384  -38.5317 C   0  0  0  0  0  0
  -22.4385   32.1882  -41.0564 C   0  0  0  0  0  0
  -21.9063   31.8587  -42.1176 O   0  0  0  0  0  0
  -22.1580   33.3265  -40.3811 N   0  0  0  0  0  0
  -21.2722   34.3697  -40.7098 C   0  0  0  0  0  0
  -21.4258   35.5520  -39.9809 C   0  0  0  0  0  0
  -20.5978   36.6437  -40.2279 C   0  0  0  0  0  0
  -19.6093   36.5522  -41.2040 C   0  0  0  0  0  0
  -19.4394   35.3770  -41.9323 C   0  0  0  0  0  0
  -20.2665   34.2836  -41.6866 C   0  0  0  0  0  0
  -23.2784   30.2493  -40.7855 H   0  0  0  0  0  0
  -29.0289   28.1838  -39.2370 O   0  0  0  0  0  0
  -29.0421   27.4824  -37.9915 C   0  0  0  0  0  0
  -30.0167   26.2974  -38.1072 C   0  0  0  0  0  0
  -30.5922   26.0690  -39.1810 O   0  0  0  0  0  0
  -30.2131   25.5674  -36.9969 N   0  0  0  0  0  0
  -31.0818   24.4691  -37.0743 O   0  0  0  0  0  0
  -29.0933   29.6244  -41.3335 H   0  0  0  0  0  0
  -26.6838   28.7326  -37.9063 H   0  0  0  0  0  0
  -27.3537   31.1366  -42.1575 H   0  0  0  0  0  0
  -24.9296   31.7309  -42.1196 H   0  0  0  0  0  0
  -25.1388   32.7230  -40.6855 H   0  0  0  0  0  0
  -22.6718   31.1329  -38.6227 H   0  0  0  0  0  0
  -24.6667   30.4704  -37.4858 H   0  0  0  0  0  0
  -23.9991   29.2714  -38.5627 H   0  0  0  0  0  0
  -22.6635   33.4593  -39.5087 H   0  0  0  0  0  0
  -22.1872   35.6300  -39.2157 H   0  0  0  0  0  0
  -20.7213   37.5554  -39.6620 H   0  0  0  0  0  0
  -18.9654   37.3986  -41.3942 H   0  0  0  0  0  0
  -18.6656   35.3112  -42.6828 H   0  0  0  0  0  0
  -20.0981   33.3839  -42.2564 H   0  0  0  0  0  0
  -29.4124   28.1540  -37.2132 H   0  0  0  0  0  0
  -28.0581   27.0932  -37.7402 H   0  0  0  0  0  0
  -29.7867   25.6815  -36.0859 H   0  0  0  0  0  0
  -30.4895   23.7131  -37.1805 H   0  0  0  0  0  0
  1  4  1  0  0  0
  1  2  2  0  0  0
  1 27  1  0  0  0
  2  3  1  0  0  0
  2 21  1  0  0  0
  3  6  2  0  0  0
  3 28  1  0  0  0
  4  5  2  0  0  0
  4 29  1  0  0  0
  5  8  1  0  0  0
  5  6  1  0  0  0
  6 10  1  0  0  0
  7  8  1  0  0  0
  7 20  1  0  0  0
  7  9  1  0  0  0
  7 11  1  0  0  0
  8 30  1  0  0  0
  8 31  1  0  0  0
  9 10  1  0  0  0
  9 32  1  0  0  0
 10 33  1  0  0  0
 10 34  1  0  0  0
 11 13  1  0  0  0
 11 12  2  0  0  0
 13 14  1  0  0  0
 13 35  1  0  0  0
 14 15  2  0  0  0
 14 19  1  0  0  0
 15 16  1  0  0  0
 15 36  1  0  0  0
 16 17  2  0  0  0
 16 37  1  0  0  0
 17 18  1  0  0  0
 17 38  1  0  0  0
 18 19  2  0  0  0
 18 39  1  0  0  0
 19 40  1  0  0  0
 21 22  1  0  0  0
 22 23  1  0  0  0
 22 41  1  0  0  0
 22 42  1  0  0  0
 23 24  2  0  0  0
 23 25  1  0  0  0
 25 26  1  0  0  0
 25 43  1  0  0  0
 26 44  1  0  0  0
M  END
> <s_m_entry_id>
52850

> <s_m_entry_name>
dock_pv.69

> <s_m_Source_Path>
/home/csk/Desktop/cluster/DUD-E-result/hdac8

> <s_m_Source_File>
dock_pv.maegz

> <i_m_Source_File_Index>
69

> <chembl_id>
CHEMBL589304

> <chembl_pref_name>
None

> <i_lp_mmshare_version>
53161

> <i_f3d_flags>
0

> <r_lp_tautomer_probability>
1

> <s_lp_Force_Field>
OPLS_2005

> <r_lp_Energy>
42.6967

> <b_lp_Chiralities_Consistent>
1

> <s_lp_Variant>
CHEMBL3192_lig186-1

> <s_i_glide_gridfile>
glide-grid_3f07

> <i_i_glide_lignum>
196

> <i_i_glide_rotatable_bonds>
8

> <r_i_docking_score>
-8.11294764323119

> <r_i_glide_ligand_efficiency>
-0.324517905729247

> <r_i_glide_ligand_efficiency_sa>
-0.948896111701884

> <r_i_glide_ligand_efficiency_ln>
-1.92301171686764

> <r_i_glide_gscore>
-8.11294764323119

> <r_i_glide_lipo>
-1.11804991409788

> <r_i_glide_hbond>
-0.430080248220871

> <r_i_glide_metal>
-2.3

> <r_i_glide_rewards>
-1.26549981536269

> <r_i_glide_evdw>
-27.7313537597656

> <r_i_glide_ecoul>
-17.0380783081055

> <r_i_glide_erotb>
1.13829782584043

> <r_i_glide_esite>
-0.195336057186069

> <r_i_glide_emodel>
-67.4435603785885

> <r_i_glide_energy>
-44.7694320678711

> <r_i_glide_einternal>
6.12259721755981

> <i_i_glide_confnum>
80

> <i_i_glide_posenum>
256

> <r_i_glide_eff_state_penalty>
0

> <s_user_duplicate_titles>
CHEMBL3192_lig186

> <s_m_subgroup_title>
dock_pv

> <s_m_subgroupid>
dock_pv

> <b_m_subgroup_collapsed>
1

$$$$
CHEMBL3192_lig721
                    3D
 Schrodinger Suite 2021-1.
 37 39  0  0  1  0            999 V2000
  -25.9287   33.3691  -41.1656 C   0  0  0  0  0  0
  -30.3982   25.3583  -37.1440 O   0  0  0  0  0  0
  -26.5895   29.2690  -38.6134 C   0  0  0  0  0  0
  -27.1076   32.4992  -45.8526 C   0  0  0  0  0  0
  -26.1531   32.7339  -42.5306 C   0  0  0  0  0  0
  -25.9560   31.2514  -44.1170 N   0  0  0  0  0  0
  -25.9790   31.4068  -39.7401 C   0  0  0  0  0  0
  -26.9585   30.2590  -39.5144 C   0  0  0  0  0  0
  -28.6340   28.0484  -39.0385 C   0  0  0  0  0  0
  -29.5516   26.8817  -38.7326 C   0  0  0  0  0  0
  -25.6242   31.5122  -42.7907 O   0  0  0  0  0  0
  -28.9972   29.0371  -39.9706 C   0  0  0  0  0  0
  -26.6130   32.6835  -40.0681 N   0  0  1  0  0  0
  -26.6130   32.3335  -44.4826 C   0  0  0  0  0  0
  -26.7731   33.2575  -43.5515 N   0  0  0  0  0  0
  -29.5935   26.4690  -37.4598 N   0  0  0  0  0  0
  -28.1655   30.1334  -40.2098 C   0  0  0  0  0  0
  -27.4130   28.1745  -38.3810 C   0  0  0  0  0  0
  -30.3428   26.4690  -39.5810 O   0  0  0  0  0  0
  -28.2130   33.7789  -46.2940 S   0  0  0  0  0  0
  -28.2191   33.2665  -47.9469 C   0  0  0  0  0  0
  -27.4130   32.1579  -48.1465 C   0  0  0  0  0  0
  -26.7984   31.7214  -46.9697 C   0  0  0  0  0  0
  -26.3066   34.3920  -41.1909 H   0  0  0  0  0  0
  -24.8629   33.4599  -40.9470 H   0  0  0  0  0  0
  -29.7701   24.6324  -37.0537 H   0  0  0  0  0  0
  -25.6433   29.3346  -38.0963 H   0  0  0  0  0  0
  -25.3786   31.5610  -38.8412 H   0  0  0  0  0  0
  -25.2698   31.0769  -40.4986 H   0  0  0  0  0  0
  -29.9297   28.9747  -40.5110 H   0  0  0  0  0  0
  -26.4543   33.2690  -39.2497 H   0  0  0  0  0  0
  -29.0272   26.7984  -36.6830 H   0  0  0  0  0  0
  -28.4536   30.8791  -40.9364 H   0  0  0  0  0  0
  -27.0841   27.4256  -37.6746 H   0  0  0  0  0  0
  -28.8210   33.7899  -48.6758 H   0  0  0  0  0  0
  -27.2886   31.6738  -49.1043 H   0  0  0  0  0  0
  -26.1367   30.8686  -46.9323 H   0  0  0  0  0  0
  1  5  1  0  0  0
  1 13  1  0  0  0
  1 24  1  0  0  0
  1 25  1  0  0  0
  2 16  1  0  0  0
  2 26  1  0  0  0
  3 18  1  0  0  0
  3  8  2  0  0  0
  3 27  1  0  0  0
  4 14  1  0  0  0
  4 20  1  0  0  0
  4 23  2  0  0  0
  5 11  1  0  0  0
  5 15  2  0  0  0
  6 11  1  0  0  0
  6 14  2  0  0  0
  7  8  1  0  0  0
  7 13  1  0  0  0
  7 28  1  0  0  0
  7 29  1  0  0  0
  8 17  1  0  0  0
  9 10  1  0  0  0
  9 18  2  0  0  0
  9 12  1  0  0  0
 10 19  2  0  0  0
 10 16  1  0  0  0
 12 17  2  0  0  0
 12 30  1  0  0  0
 13 31  1  0  0  0
 14 15  1  0  0  0
 16 32  1  0  0  0
 17 33  1  0  0  0
 18 34  1  0  0  0
 20 21  1  0  0  0
 21 22  2  0  0  0
 21 35  1  0  0  0
 22 23  1  0  0  0
 22 36  1  0  0  0
 23 37  1  0  0  0
M  END
> <s_m_entry_id>
52851

> <s_m_entry_name>
dock_pv.70

> <s_m_Source_Path>
/home/csk/Desktop/cluster/DUD-E-result/hdac8

> <s_m_Source_File>
dock_pv.maegz

> <i_m_Source_File_Index>
70

> <chembl_id>
CHEMBL3421754

> <chembl_pref_name>
None

> <i_lp_mmshare_version>
53161

> <i_f3d_flags>
0

> <r_lp_tautomer_probability>
1

> <s_lp_Force_Field>
OPLS_2005

> <r_lp_Energy>
23.806465

> <b_lp_Chiralities_Consistent>
1

> <s_lp_Variant>
CHEMBL3192_lig721-1

> <s_i_glide_gridfile>
glide-grid_3f07

> <i_i_glide_lignum>
765

> <i_i_glide_rotatable_bonds>
8

> <r_i_docking_score>
-8.09759299788692

> <r_i_glide_ligand_efficiency>
-0.352069260777692

> <r_i_glide_ligand_efficiency_sa>
-1.00123814429997

> <r_i_glide_ligand_efficiency_ln>
-1.95807141180285

> <r_i_glide_gscore>
-8.09759299788692

> <r_i_glide_lipo>
-1.26662174236504

> <r_i_glide_hbond>
-0.654822997112224

> <r_i_glide_metal>
-2.3

> <r_i_glide_rewards>
-1.38949021229048

> <r_i_glide_evdw>
-22.6510009765625

> <r_i_glide_ecoul>
-15.7951860427856

> <r_i_glide_erotb>
1.20625350127391

> <r_i_glide_esite>
-0.191083592147112

> <r_i_glide_emodel>
-60.8476038082803

> <r_i_glide_energy>
-38.4461870193481

> <r_i_glide_einternal>
3.57638382911682

> <i_i_glide_confnum>
106

> <i_i_glide_posenum>
293

> <r_i_glide_eff_state_penalty>
0

> <s_user_duplicate_titles>
CHEMBL3192_lig721

> <s_m_subgroup_title>
dock_pv

> <s_m_subgroupid>
dock_pv

> <b_m_subgroup_collapsed>
1

$$$$
CHEMBL3192_lig291
                    3D
 Schrodinger Suite 2021-1.
 57 58  0  0  1  0            999 V2000
  -28.0469   33.5890  -46.5512 C   0  0  0  0  0  0
  -27.8158   32.6284  -47.5346 C   0  0  0  0  0  0
  -27.0980   31.4737  -47.2313 C   0  0  0  0  0  0
  -26.6143   31.2688  -45.9402 C   0  0  0  0  0  0
  -27.5497   33.4069  -45.2516 C   0  0  0  0  0  0
  -27.7300   34.3138  -44.2212 O   0  0  0  0  0  0
  -28.1470   35.6456  -44.4860 C   0  0  0  0  0  0
  -27.6916   36.5424  -43.3168 C   0  0  0  0  0  0
  -26.8460   32.2314  -44.9466 C   0  0  0  0  0  0
  -28.3582   36.2617  -41.9501 C   0  0  0  0  0  0
  -26.4085   32.1230  -43.6180 N   0  0  0  0  0  0
  -25.5544   31.2739  -43.0218 C   0  0  0  0  0  0
  -25.2507   31.5689  -41.5282 C   0  0  2  0  0  0
  -25.0045   30.3246  -43.5859 O   0  0  0  0  0  0
  -25.5589   30.3741  -40.5963 C   0  0  0  0  0  0
  -26.0103   32.6896  -41.0382 O   0  0  0  0  0  0
  -25.4738   33.9941  -41.2645 C   0  0  0  0  0  0
  -26.4244   35.0480  -40.6661 C   0  0  0  0  0  0
  -27.8806   34.9999  -41.1945 C   0  0  0  0  0  0
  -27.0543   30.0243  -40.4474 C   0  0  0  0  0  0
  -27.3004   28.8996  -39.4285 C   0  0  0  0  0  0
  -28.7899   28.6955  -39.1240 C   0  0  0  0  0  0
  -29.0465   27.6362  -38.0182 C   0  0  0  0  0  0
  -29.9768   26.4690  -38.3818 C   0  0  0  0  0  0
  -30.1626   25.5398  -37.4350 N   0  0  0  0  0  0
  -30.5744   26.4690  -39.4657 O   0  0  0  0  0  0
  -31.0131   24.4689  -37.7206 O   0  0  0  0  0  0
  -28.6197   34.4666  -46.8095 H   0  0  0  0  0  0
  -28.2054   32.7723  -48.5318 H   0  0  0  0  0  0
  -26.9309   30.7305  -47.9973 H   0  0  0  0  0  0
  -26.0750   30.3591  -45.7315 H   0  0  0  0  0  0
  -29.2300   35.6839  -44.6146 H   0  0  0  0  0  0
  -27.6910   36.0230  -45.4033 H   0  0  0  0  0  0
  -27.9042   37.5767  -43.5918 H   0  0  0  0  0  0
  -26.6066   36.4886  -43.2198 H   0  0  0  0  0  0
  -28.2004   37.1263  -41.3023 H   0  0  0  0  0  0
  -29.4385   36.2049  -42.0924 H   0  0  0  0  0  0
  -26.7475   32.8685  -43.0247 H   0  0  0  0  0  0
  -24.1831   31.7853  -41.4490 H   0  0  0  0  0  0
  -25.1519   30.6066  -39.6107 H   0  0  0  0  0  0
  -25.0122   29.4944  -40.9325 H   0  0  0  0  0  0
  -25.3278   34.1894  -42.3274 H   0  0  0  0  0  0
  -24.4969   34.0751  -40.7847 H   0  0  0  0  0  0
  -25.9945   36.0400  -40.8122 H   0  0  0  0  0  0
  -26.4389   34.9096  -39.5829 H   0  0  0  0  0  0
  -28.5304   34.8768  -40.3295 H   0  0  0  0  0  0
  -28.0534   34.1062  -41.7928 H   0  0  0  0  0  0
  -27.4731   29.7416  -41.4146 H   0  0  0  0  0  0
  -27.5963   30.9166  -40.1308 H   0  0  0  0  0  0
  -26.7712   29.1256  -38.5002 H   0  0  0  0  0  0
  -26.8862   27.9632  -39.8042 H   0  0  0  0  0  0
  -29.2968   28.4640  -40.0596 H   0  0  0  0  0  0
  -29.2194   29.6443  -38.7958 H   0  0  0  0  0  0
  -29.5086   28.1551  -37.1812 H   0  0  0  0  0  0
  -28.1051   27.2420  -37.6366 H   0  0  0  0  0  0
  -29.7319   25.4825  -36.5219 H   0  0  0  0  0  0
  -30.4145   23.7099  -37.7997 H   0  0  0  0  0  0
  1  2  2  0  0  0
  1  5  1  0  0  0
  1 28  1  0  0  0
  2  3  1  0  0  0
  2 29  1  0  0  0
  3  4  2  0  0  0
  3 30  1  0  0  0
  4  9  1  0  0  0
  4 31  1  0  0  0
  5  6  1  0  0  0
  5  9  2  0  0  0
  6  7  1  0  0  0
  7  8  1  0  0  0
  7 32  1  0  0  0
  7 33  1  0  0  0
  8 10  1  0  0  0
  8 34  1  0  0  0
  8 35  1  0  0  0
  9 11  1  0  0  0
 10 19  1  0  0  0
 10 36  1  0  0  0
 10 37  1  0  0  0
 11 12  1  0  0  0
 11 38  1  0  0  0
 12 14  2  0  0  0
 12 13  1  0  0  0
 13 15  1  0  0  0
 13 16  1  0  0  0
 13 39  1  0  0  0
 15 20  1  0  0  0
 15 40  1  0  0  0
 15 41  1  0  0  0
 16 17  1  0  0  0
 17 18  1  0  0  0
 17 42  1  0  0  0
 17 43  1  0  0  0
 18 19  1  0  0  0
 18 44  1  0  0  0
 18 45  1  0  0  0
 19 46  1  0  0  0
 19 47  1  0  0  0
 20 21  1  0  0  0
 20 48  1  0  0  0
 20 49  1  0  0  0
 21 22  1  0  0  0
 21 50  1  0  0  0
 21 51  1  0  0  0
 22 23  1  0  0  0
 22 52  1  0  0  0
 22 53  1  0  0  0
 23 24  1  0  0  0
 23 54  1  0  0  0
 23 55  1  0  0  0
 24 25  1  0  0  0
 24 26  2  0  0  0
 25 27  1  0  0  0
 25 56  1  0  0  0
 27 57  1  0  0  0
M  END
> <s_m_entry_id>
52852

> <s_m_entry_name>
dock_pv.71

> <s_m_Source_Path>
/home/csk/Desktop/cluster/DUD-E-result/hdac8

> <s_m_Source_File>
dock_pv.maegz

> <i_m_Source_File_Index>
71

> <chembl_id>
CHEMBL1631911

> <chembl_pref_name>
None

> <i_lp_mmshare_version>
53161

> <i_f3d_flags>
0

> <r_lp_tautomer_probability>
1

> <s_lp_Force_Field>
OPLS_2005

> <r_lp_Energy>
39.385011

> <b_lp_Chiralities_Consistent>
1

> <s_lp_Variant>
CHEMBL3192_lig291-1

> <s_i_glide_gridfile>
glide-grid_3f07

> <i_i_glide_lignum>
306

> <i_i_glide_rotatable_bonds>
8

> <r_i_docking_score>
-8.09627347079534

> <r_i_glide_ligand_efficiency>
-0.299861980399827

> <r_i_glide_ligand_efficiency_sa>
-0.899585940211186

> <r_i_glide_ligand_efficiency_ln>
-1.88467898650116

> <r_i_glide_gscore>
-8.09627347079534

> <r_i_glide_lipo>
-1.20069433691702

> <r_i_glide_hbond>
-0.304

> <r_i_glide_metal>
-2.3

> <r_i_glide_rewards>
-0.909166473512751

> <r_i_glide_evdw>
-27.4527034759521

> <r_i_glide_ecoul>
-18.0379390716553

> <r_i_glide_erotb>
0.81179499650279

> <r_i_glide_esite>
-0.115881622322459

> <r_i_glide_emodel>
-70.2577480693355

> <r_i_glide_energy>
-45.4906425476074

> <r_i_glide_einternal>
5.17369699478149

> <i_i_glide_confnum>
2

> <i_i_glide_posenum>
89

> <r_i_glide_eff_state_penalty>
0

> <s_user_duplicate_titles>
CHEMBL3192_lig291

> <s_m_subgroup_title>
dock_pv

> <s_m_subgroupid>
dock_pv

> <b_m_subgroup_collapsed>
1

$$$$
CHEMBL3192_lig1002
                    3D
 Schrodinger Suite 2021-1.
 29 30  0  0  1  0            999 V2000
  -25.0238   31.1070  -43.8135 C   0  0  0  0  0  0
  -25.0317   32.4978  -43.8923 C   0  0  0  0  0  0
  -25.8212   33.2535  -43.0282 C   0  0  0  0  0  0
  -26.6130   32.6129  -42.0786 C   0  0  0  0  0  0
  -26.6142   31.2171  -41.9931 C   0  0  0  0  0  0
  -25.8131   30.4676  -42.8615 C   0  0  0  0  0  0
  -27.4643   30.5197  -40.9863 C   0  0  0  0  0  0
  -27.1152   29.2691  -40.5983 O   0  0  0  0  0  0
  -28.0758   28.9531  -39.6977 C   0  0  0  0  0  0
  -28.9613   29.9090  -39.5465 N   0  0  0  0  0  0
  -28.5495   30.9458  -40.3810 N   0  0  0  0  0  0
  -27.9634   27.5981  -39.0339 C   0  0  0  0  0  0
  -28.9374   27.3279  -37.9810 N   0  0  0  0  0  0
  -29.9534   26.4667  -38.0825 C   0  0  0  0  0  0
  -30.6064   26.0174  -36.7582 C   0  0  0  0  0  0
  -30.3517   26.0690  -39.1810 O   0  0  0  0  0  0
  -31.4128   24.8284  -36.9431 N   0  0  0  0  0  0
  -24.4081   30.5293  -44.4870 H   0  0  0  0  0  0
  -24.4167   32.9959  -44.6277 H   0  0  0  0  0  0
  -25.8153   34.3319  -43.0914 H   0  0  0  0  0  0
  -27.2168   33.2042  -41.4059 H   0  0  0  0  0  0
  -25.8059   29.3887  -42.8053 H   0  0  0  0  0  0
  -27.0130   27.5733  -38.5157 H   0  0  0  0  0  0
  -27.9032   26.7914  -39.7652 H   0  0  0  0  0  0
  -28.6806   27.6534  -37.0481 H   0  0  0  0  0  0
  -31.2270   26.8280  -36.3738 H   0  0  0  0  0  0
  -29.8332   25.8211  -36.0134 H   0  0  0  0  0  0
  -30.8297   24.0330  -37.1810 H   0  0  0  0  0  0
  -31.8686   24.5775  -36.0773 H   0  0  0  0  0  0
  1  2  2  0  0  0
  1  6  1  0  0  0
  1 18  1  0  0  0
  2  3  1  0  0  0
  2 19  1  0  0  0
  3  4  2  0  0  0
  3 20  1  0  0  0
  4  5  1  0  0  0
  4 21  1  0  0  0
  5  6  2  0  0  0
  5  7  1  0  0  0
  6 22  1  0  0  0
  7  8  1  0  0  0
  7 11  2  0  0  0
  8  9  1  0  0  0
  9 10  2  0  0  0
  9 12  1  0  0  0
 10 11  1  0  0  0
 12 13  1  0  0  0
 12 23  1  0  0  0
 12 24  1  0  0  0
 13 14  1  0  0  0
 13 25  1  0  0  0
 14 15  1  0  0  0
 14 16  2  0  0  0
 15 17  1  0  0  0
 15 26  1  0  0  0
 15 27  1  0  0  0
 17 28  1  0  0  0
 17 29  1  0  0  0
M  END
> <s_m_entry_id>
52853

> <s_m_entry_name>
dock_pv.72

> <s_m_Source_Path>
/home/csk/Desktop/cluster/DUD-E-result/hdac8

> <s_m_Source_File>
dock_pv.maegz

> <i_m_Source_File_Index>
72

> <chembl_id>
CHEMBL3957732

> <chembl_pref_name>
None

> <i_lp_mmshare_version>
53161

> <i_f3d_flags>
0

> <r_lp_tautomer_probability>
1

> <s_lp_Force_Field>
OPLS_2005

> <r_lp_Energy>
4.146796

> <b_lp_Chiralities_Consistent>
1

> <s_lp_Variant>
CHEMBL3192_lig1002-1

> <s_i_glide_gridfile>
glide-grid_3f07

> <i_i_glide_lignum>
1064

> <i_i_glide_rotatable_bonds>
5

> <r_i_docking_score>
-8.08242442521128

> <r_i_glide_ligand_efficiency>
-0.475436730894781

> <r_i_glide_ligand_efficiency_sa>
-1.22248171251797

> <r_i_glide_ligand_efficiency_ln>
-2.10852454579495

> <r_i_glide_gscore>
-8.08242442521128

> <r_i_glide_lipo>
-0.824160436009231

> <r_i_glide_hbond>
-0.487122203951006

> <r_i_glide_metal>
-2.3

> <r_i_glide_rewards>
-1.98129664898734

> <r_i_glide_evdw>
-26.4294166564941

> <r_i_glide_ecoul>
-14.9586515426636

> <r_i_glide_erotb>
1.27011090956669

> <r_i_glide_esite>
-0.194687481606142

> <r_i_glide_emodel>
-63.6096853881883

> <r_i_glide_energy>
-41.3880681991577

> <r_i_glide_einternal>
5.90987825393677

> <i_i_glide_confnum>
6

> <i_i_glide_posenum>
157

> <r_i_glide_eff_state_penalty>
0

> <s_user_duplicate_titles>
CHEMBL3192_lig1002

> <s_m_subgroup_title>
dock_pv

> <s_m_subgroupid>
dock_pv

> <b_m_subgroup_collapsed>
1

$$$$
CHEMBL3192_lig190
                    3D
 Schrodinger Suite 2021-1.
 50 52  0  0  1  0            999 V2000
  -27.0130   29.1867  -38.5018 C   0  0  0  0  0  0
  -28.0142   28.9783  -39.4534 C   0  0  0  0  0  0
  -27.9838   29.7521  -40.6170 C   0  0  0  0  0  0
  -25.9933   30.1019  -38.7243 C   0  0  0  0  0  0
  -25.9532   30.8566  -39.8913 C   0  0  0  0  0  0
  -26.9754   30.7003  -40.8489 C   0  0  0  0  0  0
  -25.2813   32.9837  -41.0826 C   0  0  2  0  0  0
  -24.8169   31.8425  -40.1411 C   0  0  0  0  0  0
  -25.7636   32.3482  -42.3187 N   0  0  1  0  0  0
  -27.0130   31.6250  -42.0716 C   0  0  0  0  0  0
  -24.1538   34.0028  -41.4032 C   0  0  0  0  0  0
  -24.0286   34.4746  -42.5374 O   0  0  0  0  0  0
  -23.3623   34.3791  -40.3810 N   0  0  0  0  0  0
  -26.0649   33.5925  -40.6255 H   0  0  0  0  0  0
  -29.0341   28.0534  -39.2992 O   0  0  0  0  0  0
  -29.1265   27.3305  -38.0600 C   0  0  0  0  0  0
  -30.1844   26.2202  -38.1431 C   0  0  0  0  0  0
  -30.8387   26.0690  -39.1810 O   0  0  0  0  0  0
  -30.3558   25.4731  -37.0399 N   0  0  0  0  0  0
  -31.3256   24.4598  -37.0707 O   0  0  0  0  0  0
  -22.2131   35.2813  -40.4665 C   0  0  0  0  0  0
  -21.0833   34.8092  -41.4188 C   0  0  0  0  0  0
  -20.6516   33.3454  -41.3003 C   0  0  0  0  0  0
  -20.3616   32.6238  -42.4631 C   0  0  0  0  0  0
  -19.9449   31.2980  -42.3808 C   0  0  0  0  0  0
  -19.8130   30.6950  -41.1324 C   0  0  0  0  0  0
  -20.1071   31.4016  -39.9678 C   0  0  0  0  0  0
  -20.5239   32.7280  -40.0507 C   0  0  0  0  0  0
  -26.9988   28.6335  -37.5810 H   0  0  0  0  0  0
  -28.7705   29.6283  -41.3460 H   0  0  0  0  0  0
  -25.2188   30.2259  -37.9811 H   0  0  0  0  0  0
  -24.4442   32.2238  -39.1898 H   0  0  0  0  0  0
  -23.9926   31.2950  -40.6029 H   0  0  0  0  0  0
  -25.8965   33.0570  -43.0296 H   0  0  0  0  0  0
  -27.2503   31.0530  -42.9694 H   0  0  0  0  0  0
  -27.8130   32.3501  -41.9295 H   0  0  0  0  0  0
  -23.5948   34.0690  -39.4408 H   0  0  0  0  0  0
  -29.4130   28.0182  -37.2620 H   0  0  0  0  0  0
  -28.1700   26.8690  -37.8333 H   0  0  0  0  0  0
  -29.8570   25.5266  -36.1608 H   0  0  0  0  0  0
  -30.8106   23.6509  -37.1810 H   0  0  0  0  0  0
  -22.5658   36.2774  -40.7399 H   0  0  0  0  0  0
  -21.8299   35.3168  -39.4457 H   0  0  0  0  0  0
  -21.4176   34.9896  -42.4416 H   0  0  0  0  0  0
  -20.2059   35.4422  -41.2848 H   0  0  0  0  0  0
  -20.4576   33.0882  -43.4338 H   0  0  0  0  0  0
  -19.7222   30.7432  -43.2812 H   0  0  0  0  0  0
  -19.4834   29.6688  -41.0676 H   0  0  0  0  0  0
  -20.0091   30.9257  -39.0030 H   0  0  0  0  0  0
  -20.7475   33.2690  -39.1421 H   0  0  0  0  0  0
  1  2  2  0  0  0
  1  4  1  0  0  0
  1 29  1  0  0  0
  2 15  1  0  0  0
  2  3  1  0  0  0
  3  6  2  0  0  0
  3 30  1  0  0  0
  4  5  2  0  0  0
  4 31  1  0  0  0
  5  6  1  0  0  0
  5  8  1  0  0  0
  6 10  1  0  0  0
  7 14  1  0  0  0
  7  8  1  0  0  0
  7  9  1  0  0  0
  7 11  1  0  0  0
  8 32  1  0  0  0
  8 33  1  0  0  0
  9 10  1  0  0  0
  9 34  1  0  0  0
 10 35  1  0  0  0
 10 36  1  0  0  0
 11 13  1  0  0  0
 11 12  2  0  0  0
 13 21  1  0  0  0
 13 37  1  0  0  0
 15 16  1  0  0  0
 16 17  1  0  0  0
 16 38  1  0  0  0
 16 39  1  0  0  0
 17 18  2  0  0  0
 17 19  1  0  0  0
 19 20  1  0  0  0
 19 40  1  0  0  0
 20 41  1  0  0  0
 21 22  1  0  0  0
 21 42  1  0  0  0
 21 43  1  0  0  0
 22 23  1  0  0  0
 22 44  1  0  0  0
 22 45  1  0  0  0
 23 24  2  0  0  0
 23 28  1  0  0  0
 24 25  1  0  0  0
 24 46  1  0  0  0
 25 26  2  0  0  0
 25 47  1  0  0  0
 26 27  1  0  0  0
 26 48  1  0  0  0
 27 28  2  0  0  0
 27 49  1  0  0  0
 28 50  1  0  0  0
M  END
> <s_m_entry_id>
52854

> <s_m_entry_name>
dock_pv.73

> <s_m_Source_Path>
/home/csk/Desktop/cluster/DUD-E-result/hdac8

> <s_m_Source_File>
dock_pv.maegz

> <i_m_Source_File_Index>
73

> <chembl_id>
CHEMBL602757

> <chembl_pref_name>
None

> <i_lp_mmshare_version>
53161

> <i_f3d_flags>
0

> <r_lp_tautomer_probability>
1

> <s_lp_Force_Field>
OPLS_2005

> <r_lp_Energy>
33.396689

> <b_lp_Chiralities_Consistent>
1

> <s_lp_Variant>
CHEMBL3192_lig190-1

> <s_i_glide_gridfile>
glide-grid_3f07

> <i_i_glide_lignum>
200

> <i_i_glide_rotatable_bonds>
10

> <r_i_docking_score>
-8.07937058877784

> <r_i_glide_ligand_efficiency>
-0.299235947732512

> <r_i_glide_ligand_efficiency_sa>
-0.897707842211305

> <r_i_glide_ligand_efficiency_ln>
-1.88074427423327

> <r_i_glide_gscore>
-8.07937058877784

> <r_i_glide_lipo>
-0.985085657338531

> <r_i_glide_hbond>
-0.520644286206461

> <r_i_glide_metal>
-2.3

> <r_i_glide_rewards>
-1.08163921628653

> <r_i_glide_evdw>
-31.108642578125

> <r_i_glide_ecoul>
-17.1053333282471

> <r_i_glide_erotb>
1.13027991637134

> <r_i_glide_esite>
-0.201049217174344

> <r_i_glide_emodel>
-77.1104240931852

> <r_i_glide_energy>
-48.2139759063721

> <r_i_glide_einternal>
3.93471717834473

> <i_i_glide_confnum>
24

> <i_i_glide_posenum>
362

> <r_i_glide_eff_state_penalty>
0

> <s_user_duplicate_titles>
CHEMBL3192_lig190

> <s_m_subgroup_title>
dock_pv

> <s_m_subgroupid>
dock_pv

> <b_m_subgroup_collapsed>
1

$$$$
CHEMBL3192_lig238
                    3D
 Schrodinger Suite 2021-1.
 50 53  0  0  1  0            999 V2000
  -23.9633   34.0340  -42.1727 C   0  0  0  0  0  0
  -24.5001   34.3660  -40.9289 C   0  0  0  0  0  0
  -25.6862   35.0922  -40.8525 C   0  0  0  0  0  0
  -26.3141   35.5183  -42.0215 C   0  0  0  0  0  0
  -25.7673   35.2177  -43.2669 C   0  0  0  0  0  0
  -24.5922   34.4748  -43.3425 C   0  0  0  0  0  0
  -24.1182   31.2351  -43.0213 N   0  0  0  0  0  0
  -25.0645   31.3070  -47.0302 C   0  0  0  0  0  0
  -23.7410   31.6259  -46.7227 C   0  0  0  0  0  0
  -23.2696   31.6327  -45.4074 C   0  0  0  0  0  0
  -25.9767   30.9664  -46.0305 C   0  0  0  0  0  0
  -26.2148   30.6521  -43.5703 N   0  0  0  0  0  0
  -25.5265   30.9585  -44.7037 C   0  0  0  0  0  0
  -24.1917   31.3030  -44.4036 C   0  0  0  0  0  0
  -25.3825   30.8378  -42.5689 C   0  0  0  0  0  0
  -25.8286   30.5448  -41.1468 C   0  0  0  0  0  0
  -25.2503   31.0987  -39.9974 C   0  0  0  0  0  0
  -25.6733   30.7201  -38.7256 C   0  0  0  0  0  0
  -26.6995   29.7909  -38.5724 C   0  0  0  0  0  0
  -27.3496   29.2701  -39.6900 C   0  0  0  0  0  0
  -26.9121   29.6683  -40.9588 C   0  0  0  0  0  0
  -28.4687   28.3099  -39.5813 C   0  0  0  0  0  0
  -28.6718   27.3821  -38.6146 C   0  0  0  0  0  0
  -29.8135   26.4906  -38.6346 C   0  0  0  0  0  0
  -29.9488   25.7172  -37.5464 N   0  0  0  0  0  0
  -30.6131   26.4690  -39.5810 O   0  0  0  0  0  0
  -31.0019   24.7865  -37.5139 O   0  0  0  0  0  0
  -22.9303   31.6355  -42.2598 C   0  0  0  0  0  0
  -22.7035   33.1748  -42.2616 C   0  0  0  0  0  0
  -24.0102   34.0552  -40.0180 H   0  0  0  0  0  0
  -26.1130   35.3185  -39.8870 H   0  0  0  0  0  0
  -27.2290   36.0897  -41.9610 H   0  0  0  0  0  0
  -26.2561   35.5517  -44.1703 H   0  0  0  0  0  0
  -24.1807   34.2301  -44.3110 H   0  0  0  0  0  0
  -25.3883   31.3253  -48.0616 H   0  0  0  0  0  0
  -23.0619   31.8823  -47.5247 H   0  0  0  0  0  0
  -22.2435   31.8878  -45.1844 H   0  0  0  0  0  0
  -27.0005   30.7194  -46.2703 H   0  0  0  0  0  0
  -24.4776   31.8436  -40.0539 H   0  0  0  0  0  0
  -25.2016   31.1576  -37.8591 H   0  0  0  0  0  0
  -27.0134   29.5048  -37.5815 H   0  0  0  0  0  0
  -27.4175   29.2711  -41.8242 H   0  0  0  0  0  0
  -29.1922   28.4061  -40.3809 H   0  0  0  0  0  0
  -27.9766   27.2705  -37.7942 H   0  0  0  0  0  0
  -29.3504   25.6734  -36.7323 H   0  0  0  0  0  0
  -30.5538   23.9324  -37.5806 H   0  0  0  0  0  0
  -22.9605   31.2180  -41.2589 H   0  0  0  0  0  0
  -22.0663   31.1444  -42.7104 H   0  0  0  0  0  0
  -22.0251   33.4445  -41.4500 H   0  0  0  0  0  0
  -22.1634   33.4604  -43.1651 H   0  0  0  0  0  0
  1  6  1  0  0  0
  1  2  2  0  0  0
  1 29  1  0  0  0
  2  3  1  0  0  0
  2 30  1  0  0  0
  3  4  2  0  0  0
  3 31  1  0  0  0
  4  5  1  0  0  0
  4 32  1  0  0  0
  5  6  2  0  0  0
  5 33  1  0  0  0
  6 34  1  0  0  0
  7 14  1  0  0  0
  7 15  1  0  0  0
  7 28  1  0  0  0
  8  9  2  0  0  0
  8 11  1  0  0  0
  8 35  1  0  0  0
  9 10  1  0  0  0
  9 36  1  0  0  0
 10 14  2  0  0  0
 10 37  1  0  0  0
 11 13  2  0  0  0
 11 38  1  0  0  0
 12 15  2  0  0  0
 12 13  1  0  0  0
 13 14  1  0  0  0
 15 16  1  0  0  0
 16 17  2  0  0  0
 16 21  1  0  0  0
 17 18  1  0  0  0
 17 39  1  0  0  0
 18 19  2  0  0  0
 18 40  1  0  0  0
 19 20  1  0  0  0
 19 41  1  0  0  0
 20 21  2  0  0  0
 20 22  1  0  0  0
 21 42  1  0  0  0
 22 23  2  0  0  0
 22 43  1  0  0  0
 23 24  1  0  0  0
 23 44  1  0  0  0
 24 25  1  0  0  0
 24 26  2  0  0  0
 25 27  1  0  0  0
 25 45  1  0  0  0
 27 46  1  0  0  0
 28 29  1  0  0  0
 28 47  1  0  0  0
 28 48  1  0  0  0
 29 49  1  0  0  0
 29 50  1  0  0  0
M  END
> <s_m_entry_id>
52855

> <s_m_entry_name>
dock_pv.74

> <s_m_Source_Path>
/home/csk/Desktop/cluster/DUD-E-result/hdac8

> <s_m_Source_File>
dock_pv.maegz

> <i_m_Source_File_Index>
74

> <chembl_id>
CHEMBL1099096

> <chembl_pref_name>
None

> <i_lp_mmshare_version>
53161

> <i_f3d_flags>
0

> <r_lp_tautomer_probability>
1

> <s_lp_Force_Field>
OPLS_2005

> <r_lp_Energy>
31.511938

> <b_lp_Chiralities_Consistent>
1

> <s_lp_Variant>
CHEMBL3192_lig238-1

> <s_i_glide_gridfile>
glide-grid_3f07

> <i_i_glide_lignum>
248

> <i_i_glide_rotatable_bonds>
8

> <r_i_docking_score>
-8.06734456754212

> <r_i_glide_ligand_efficiency>
-0.278184295432487

> <r_i_glide_ligand_efficiency_sa>
-0.854670290539483

> <r_i_glide_ligand_efficiency_ln>
-1.84721733575971

> <r_i_glide_gscore>
-8.06734456754212

> <r_i_glide_lipo>
-1.38161817791671

> <r_i_glide_hbond>
-0.307526770383986

> <r_i_glide_metal>
-2.3

> <r_i_glide_rewards>
-0.987931841304135

> <r_i_glide_evdw>
-31.1662654876709

> <r_i_glide_ecoul>
-15.4191255569458

> <r_i_glide_erotb>
0.92516495106488

> <r_i_glide_esite>
-0.144250621076756

> <r_i_glide_emodel>
-72.7068722758098

> <r_i_glide_energy>
-46.5853910446167

> <r_i_glide_einternal>
3.90283703804016

> <i_i_glide_confnum>
18

> <i_i_glide_posenum>
300

> <r_i_glide_eff_state_penalty>
0

> <s_user_duplicate_titles>
CHEMBL3192_lig238,625392

> <s_m_subgroup_title>
dock_pv

> <s_m_subgroupid>
dock_pv

> <b_m_subgroup_collapsed>
1

$$$$
CHEMBL3192_lig65
                    3D
 Schrodinger Suite 2021-1.
 53 55  0  0  1  0            999 V2000
  -27.3899   30.8737  -41.1257 C   0  0  0  0  0  0
  -26.3778   31.5646  -40.4553 C   0  0  0  0  0  0
  -25.9898   31.1557  -39.1813 C   0  0  0  0  0  0
  -26.6130   30.0688  -38.5824 C   0  0  0  0  0  0
  -27.6142   29.3547  -39.2436 C   0  0  0  0  0  0
  -28.0060   29.7761  -40.5228 C   0  0  0  0  0  0
  -28.2339   28.2115  -38.5297 C   0  0  0  0  0  0
  -29.2914   27.4798  -38.9460 C   0  0  0  0  0  0
  -29.9286   26.4170  -38.1937 C   0  0  0  0  0  0
  -29.8323   26.4690  -36.8542 N   0  0  0  0  0  0
  -30.6130   25.5794  -38.7810 O   0  0  0  0  0  0
  -30.6101   25.5724  -36.0993 O   0  0  0  0  0  0
  -25.6636   32.7431  -41.1130 C   0  0  0  0  0  0
  -26.5259   33.9020  -41.4175 N   0  0  2  0  0  0
  -25.7801   34.8877  -42.2271 C   0  0  0  0  0  0
  -27.0133   34.5157  -40.1635 C   0  0  0  0  0  0
  -28.0291   35.6574  -40.4033 C   0  0  0  0  0  0
  -28.6130   36.0688  -39.1821 O   0  0  0  0  0  0
  -25.2332   34.3817  -43.5860 C   0  0  0  0  0  0
  -26.2607   33.8008  -44.5444 C   0  0  0  0  0  0
  -28.1938   33.3066  -45.6158 N   0  0  0  0  0  0
  -27.6347   33.9730  -44.5548 C   0  0  0  0  0  0
  -27.2074   32.6735  -46.3369 C   0  0  0  0  0  0
  -25.9709   32.9706  -45.6851 C   0  0  0  0  0  0
  -24.7854   32.4480  -46.2296 C   0  0  0  0  0  0
  -24.8527   31.6670  -47.3820 C   0  0  0  0  0  0
  -26.0727   31.3922  -47.9939 C   0  0  0  0  0  0
  -27.2761   31.8852  -47.4899 C   0  0  0  0  0  0
  -27.6899   31.1862  -42.1154 H   0  0  0  0  0  0
  -25.2121   31.6820  -38.6463 H   0  0  0  0  0  0
  -26.3282   29.8004  -37.5810 H   0  0  0  0  0  0
  -28.7864   29.2690  -41.0668 H   0  0  0  0  0  0
  -27.7774   27.9689  -37.5810 H   0  0  0  0  0  0
  -29.7331   27.6692  -39.9112 H   0  0  0  0  0  0
  -29.2825   27.1109  -36.2850 H   0  0  0  0  0  0
  -31.2716   26.1320  -35.6824 H   0  0  0  0  0  0
  -24.8326   33.0711  -40.4836 H   0  0  0  0  0  0
  -25.2098   32.3349  -42.0149 H   0  0  0  0  0  0
  -26.4177   35.7400  -42.4575 H   0  0  0  0  0  0
  -24.9525   35.2964  -41.6433 H   0  0  0  0  0  0
  -27.5001   33.7334  -39.5810 H   0  0  0  0  0  0
  -26.1442   34.8979  -39.6245 H   0  0  0  0  0  0
  -27.5539   36.5345  -40.8423 H   0  0  0  0  0  0
  -28.8144   35.3362  -41.0884 H   0  0  0  0  0  0
  -28.0586   36.7580  -38.7890 H   0  0  0  0  0  0
  -24.7637   35.2350  -44.0763 H   0  0  0  0  0  0
  -24.3859   33.7160  -43.4231 H   0  0  0  0  0  0
  -29.1843   33.3175  -45.8125 H   0  0  0  0  0  0
  -28.2663   34.5339  -43.8807 H   0  0  0  0  0  0
  -23.8320   32.6536  -45.7660 H   0  0  0  0  0  0
  -23.9428   31.2690  -47.8080 H   0  0  0  0  0  0
  -26.0885   30.7856  -48.8874 H   0  0  0  0  0  0
  -28.2130   31.6693  -47.9808 H   0  0  0  0  0  0
  1  6  1  0  0  0
  1  2  2  0  0  0
  1 29  1  0  0  0
  2  3  1  0  0  0
  2 13  1  0  0  0
  3  4  2  0  0  0
  3 30  1  0  0  0
  4  5  1  0  0  0
  4 31  1  0  0  0
  5  7  1  0  0  0
  5  6  2  0  0  0
  6 32  1  0  0  0
  7  8  2  0  0  0
  7 33  1  0  0  0
  8  9  1  0  0  0
  8 34  1  0  0  0
  9 10  1  0  0  0
  9 11  2  0  0  0
 10 12  1  0  0  0
 10 35  1  0  0  0
 12 36  1  0  0  0
 13 14  1  0  0  0
 13 37  1  0  0  0
 13 38  1  0  0  0
 14 15  1  0  0  0
 14 16  1  0  0  0
 15 19  1  0  0  0
 15 39  1  0  0  0
 15 40  1  0  0  0
 16 17  1  0  0  0
 16 41  1  0  0  0
 16 42  1  0  0  0
 17 18  1  0  0  0
 17 43  1  0  0  0
 17 44  1  0  0  0
 18 45  1  0  0  0
 19 20  1  0  0  0
 19 46  1  0  0  0
 19 47  1  0  0  0
 20 24  1  0  0  0
 20 22  2  0  0  0
 21 23  1  0  0  0
 21 22  1  0  0  0
 21 48  1  0  0  0
 22 49  1  0  0  0
 23 24  2  0  0  0
 23 28  1  0  0  0
 24 25  1  0  0  0
 25 26  2  0  0  0
 25 50  1  0  0  0
 26 27  1  0  0  0
 26 51  1  0  0  0
 27 28  2  0  0  0
 27 52  1  0  0  0
 28 53  1  0  0  0
M  END
> <s_m_entry_id>
52856

> <s_m_entry_name>
dock_pv.75

> <s_m_Source_Path>
/home/csk/Desktop/cluster/DUD-E-result/hdac8

> <s_m_Source_File>
dock_pv.maegz

> <i_m_Source_File_Index>
75

> <chembl_id>
CHEMBL356066

> <chembl_pref_name>
DACINOSTAT

> <i_lp_mmshare_version>
53161

> <i_f3d_flags>
0

> <r_lp_tautomer_probability>
1

> <s_lp_Force_Field>
OPLS_2005

> <r_lp_Energy>
30.500577

> <b_lp_Chiralities_Consistent>
1

> <s_lp_Variant>
CHEMBL3192_lig65-1

> <s_i_glide_gridfile>
glide-grid_3f07

> <i_i_glide_lignum>
67

> <i_i_glide_rotatable_bonds>
12

> <r_i_docking_score>
-8.06640971530142

> <r_i_glide_ligand_efficiency>
-0.288086061260765

> <r_i_glide_ligand_efficiency_sa>
-0.874798955603866

> <r_i_glide_ligand_efficiency_ln>
-1.86196420237215

> <r_i_glide_gscore>
-8.06640971530142

> <r_i_glide_lipo>
-1.17832494990795

> <r_i_glide_hbond>
-0.608

> <r_i_glide_metal>
-2.3

> <r_i_glide_rewards>
-1.11319249158076

> <r_i_glide_evdw>
-31.846700668335

> <r_i_glide_ecoul>
-15.7158737182617

> <r_i_glide_erotb>
1.21200999945722

> <r_i_glide_esite>
-0.129186182113933

> <r_i_glide_emodel>
-71.1133626671603

> <r_i_glide_energy>
-47.5625743865967

> <r_i_glide_einternal>
8.19436645507812

> <i_i_glide_confnum>
46

> <i_i_glide_posenum>
245

> <r_i_glide_eff_state_penalty>
0

> <s_user_duplicate_titles>
CHEMBL3192_lig65,234707

> <s_m_subgroup_title>
dock_pv

> <s_m_subgroupid>
dock_pv

> <b_m_subgroup_collapsed>
1

$$$$
CHEMBL3192_lig854
                    3D
 Schrodinger Suite 2021-1.
 45 46  0  0  1  0            999 V2000
  -31.0130   24.6162  -37.9076 O   0  0  0  0  0  0
  -30.1659   25.6664  -37.5048 N   0  0  0  0  0  0
  -29.7980   26.5689  -38.4301 C   0  0  0  0  0  0
  -30.2131   26.5136  -39.5810 O   0  0  0  0  0  0
  -28.8805   27.7271  -37.9801 C   0  0  0  0  0  0
  -28.2764   28.7274  -38.9825 C   0  0  0  0  0  0
  -29.0140   29.3604  -39.9843 C   0  0  0  0  0  0
  -28.4292   30.3310  -40.7939 C   0  0  0  0  0  0
  -27.0883   30.6722  -40.6237 C   0  0  0  0  0  0
  -26.4290   31.6982  -41.5389 C   0  0  0  0  0  0
  -25.3144   31.1068  -42.4300 C   0  0  0  0  0  0
  -25.8012   30.1379  -43.5375 C   0  0  0  0  0  0
  -26.1588   30.8048  -44.8896 C   0  0  0  0  0  0
  -24.9989   31.2916  -45.7817 C   0  0  0  0  0  0
  -23.6737   31.2431  -45.3178 C   0  0  0  0  0  0
  -22.6178   31.7010  -46.0992 C   0  0  0  0  0  0
  -22.8600   32.2014  -47.3711 C   0  0  0  0  0  0
  -24.1613   32.2445  -47.8589 C   0  0  0  0  0  0
  -25.2423   31.7939  -47.0848 C   0  0  0  0  0  0
  -26.6500   31.8481  -47.6997 C   0  0  0  0  0  0
  -27.5461   32.3717  -46.8638 F   0  0  0  0  0  0
  -26.6906   32.5708  -48.8209 F   0  0  0  0  0  0
  -27.0126   30.6069  -48.0098 F   0  0  0  0  0  0
  -26.3499   30.0724  -39.6055 C   0  0  0  0  0  0
  -26.9459   29.1196  -38.7882 C   0  0  0  0  0  0
  -30.4247   23.8474  -37.9727 H   0  0  0  0  0  0
  -29.8823   25.6099  -36.5352 H   0  0  0  0  0  0
  -29.3943   28.2810  -37.1903 H   0  0  0  0  0  0
  -27.9955   27.2610  -37.5811 H   0  0  0  0  0  0
  -30.0504   29.1179  -40.1494 H   0  0  0  0  0  0
  -29.0087   30.8112  -41.5706 H   0  0  0  0  0  0
  -27.1750   32.2005  -42.1569 H   0  0  0  0  0  0
  -26.0063   32.4804  -40.9049 H   0  0  0  0  0  0
  -24.7606   31.9350  -42.8717 H   0  0  0  0  0  0
  -24.5911   30.5902  -41.7972 H   0  0  0  0  0  0
  -25.0600   29.3572  -43.7106 H   0  0  0  0  0  0
  -26.6771   29.6046  -43.1718 H   0  0  0  0  0  0
  -26.7359   30.0856  -45.4718 H   0  0  0  0  0  0
  -26.8252   31.6430  -44.6856 H   0  0  0  0  0  0
  -23.4297   30.8578  -44.3414 H   0  0  0  0  0  0
  -21.6074   31.6711  -45.7161 H   0  0  0  0  0  0
  -22.0395   32.5551  -47.9782 H   0  0  0  0  0  0
  -24.3184   32.6318  -48.8555 H   0  0  0  0  0  0
  -25.3157   30.3429  -39.4445 H   0  0  0  0  0  0
  -26.3557   28.6844  -37.9967 H   0  0  0  0  0  0
  1  2  1  0  0  0
  1 26  1  0  0  0
  2  3  1  0  0  0
  2 27  1  0  0  0
  3  4  2  0  0  0
  3  5  1  0  0  0
  5  6  1  0  0  0
  5 28  1  0  0  0
  5 29  1  0  0  0
  6  7  2  0  0  0
  6 25  1  0  0  0
  7  8  1  0  0  0
  7 30  1  0  0  0
  8  9  2  0  0  0
  8 31  1  0  0  0
  9 10  1  0  0  0
  9 24  1  0  0  0
 10 11  1  0  0  0
 10 32  1  0  0  0
 10 33  1  0  0  0
 11 12  1  0  0  0
 11 34  1  0  0  0
 11 35  1  0  0  0
 12 13  1  0  0  0
 12 36  1  0  0  0
 12 37  1  0  0  0
 13 14  1  0  0  0
 13 38  1  0  0  0
 13 39  1  0  0  0
 14 15  2  0  0  0
 14 19  1  0  0  0
 15 16  1  0  0  0
 15 40  1  0  0  0
 16 17  2  0  0  0
 16 41  1  0  0  0
 17 18  1  0  0  0
 17 42  1  0  0  0
 18 19  2  0  0  0
 18 43  1  0  0  0
 19 20  1  0  0  0
 20 21  1  0  0  0
 20 22  1  0  0  0
 20 23  1  0  0  0
 24 25  2  0  0  0
 24 44  1  0  0  0
 25 45  1  0  0  0
M  END
> <s_m_entry_id>
52857

> <s_m_entry_name>
dock_pv.76

> <s_m_Source_Path>
/home/csk/Desktop/cluster/DUD-E-result/hdac8

> <s_m_Source_File>
dock_pv.maegz

> <i_m_Source_File_Index>
76

> <chembl_id>
CHEMBL3698523

> <chembl_pref_name>
None

> <i_lp_mmshare_version>
53161

> <i_f3d_flags>
0

> <r_lp_tautomer_probability>
1

> <s_lp_Force_Field>
OPLS_2005

> <r_lp_Energy>
21.979057

> <b_lp_Chiralities_Consistent>
1

> <s_lp_Variant>
CHEMBL3192_lig854-1

> <s_i_glide_gridfile>
glide-grid_3f07

> <i_i_glide_lignum>
912

> <i_i_glide_rotatable_bonds>
10

> <r_i_docking_score>
-8.0648879921383

> <r_i_glide_ligand_efficiency>
-0.322595519685532

> <r_i_glide_ligand_efficiency_sa>
-0.943275020816398

> <r_i_glide_ligand_efficiency_ln>
-1.9116201393271

> <r_i_glide_gscore>
-8.0648879921383

> <r_i_glide_lipo>
-1.6680441126704

> <r_i_glide_hbond>
-0.304

> <r_i_glide_metal>
-2.3

> <r_i_glide_rewards>
-1.37175765368985

> <r_i_glide_evdw>
-26.3309841156006

> <r_i_glide_ecoul>
-14.6472702026367

> <r_i_glide_erotb>
1.23587489226998

> <r_i_glide_esite>
-0.143321381872489

> <r_i_glide_emodel>
-60.0606650479089

> <r_i_glide_energy>
-40.9782543182373

> <r_i_glide_einternal>
8.30492210388184

> <i_i_glide_confnum>
45

> <i_i_glide_posenum>
269

> <r_i_glide_eff_state_penalty>
0

> <s_user_duplicate_titles>
CHEMBL3192_lig854

> <s_m_subgroup_title>
dock_pv

> <s_m_subgroupid>
dock_pv

> <b_m_subgroup_collapsed>
1

$$$$
CHEMBL3192_lig511
                    3D
 Schrodinger Suite 2021-1.
 20 20  0  0  1  0            999 V2000
  -25.2430   30.1494  -38.3810 C   0  0  0  0  0  0
  -26.5813   29.8205  -39.0162 C   0  0  0  0  0  0
  -27.0478   30.6397  -40.0422 C   0  0  0  0  0  0
  -28.2622   30.3621  -40.6553 C   0  0  0  0  0  0
  -29.0161   29.2690  -40.2395 C   0  0  0  0  0  0
  -28.5696   28.4160  -39.2168 C   0  0  0  0  0  0
  -27.3370   28.7087  -38.6119 C   0  0  0  0  0  0
  -29.4130   27.2225  -38.8046 C   0  0  0  0  0  0
  -29.4129   26.8690  -37.5226 N   0  0  0  0  0  0
  -30.2130   26.6971  -39.5810 O   0  0  0  0  0  0
  -30.2130   25.7835  -37.1084 O   0  0  0  0  0  0
  -24.5572   30.5726  -39.1166 H   0  0  0  0  0  0
  -25.3724   30.8782  -37.5808 H   0  0  0  0  0  0
  -24.7483   29.2689  -37.9810 H   0  0  0  0  0  0
  -26.4672   31.4922  -40.3655 H   0  0  0  0  0  0
  -28.6144   30.9901  -41.4581 H   0  0  0  0  0  0
  -29.9594   29.0893  -40.7340 H   0  0  0  0  0  0
  -26.9605   28.0687  -37.8296 H   0  0  0  0  0  0
  -28.8371   27.2606  -36.7810 H   0  0  0  0  0  0
  -29.5816   25.0713  -36.9605 H   0  0  0  0  0  0
  1  2  1  0  0  0
  1 12  1  0  0  0
  1 13  1  0  0  0
  1 14  1  0  0  0
  2  3  2  0  0  0
  2  7  1  0  0  0
  3  4  1  0  0  0
  3 15  1  0  0  0
  4  5  2  0  0  0
  4 16  1  0  0  0
  5  6  1  0  0  0
  5 17  1  0  0  0
  6  7  2  0  0  0
  6  8  1  0  0  0
  7 18  1  0  0  0
  8  9  1  0  0  0
  8 10  2  0  0  0
  9 11  1  0  0  0
  9 19  1  0  0  0
 11 20  1  0  0  0
M  END
> <s_m_entry_id>
52858

> <s_m_entry_name>
dock_pv.77

> <s_m_Source_Path>
/home/csk/Desktop/cluster/DUD-E-result/hdac8

> <s_m_Source_File>
dock_pv.maegz

> <i_m_Source_File_Index>
77

> <chembl_id>
CHEMBL2381522

> <chembl_pref_name>
None

> <i_lp_mmshare_version>
53161

> <i_f3d_flags>
0

> <r_lp_tautomer_probability>
1

> <s_lp_Force_Field>
OPLS_2005

> <r_lp_Energy>
15.632456

> <b_lp_Chiralities_Consistent>
1

> <s_lp_Variant>
CHEMBL3192_lig511-1

> <s_i_glide_gridfile>
glide-grid_3f07

> <i_i_glide_lignum>
532

> <i_i_glide_rotatable_bonds>
3

> <r_i_docking_score>
-8.06464499033697

> <r_i_glide_ligand_efficiency>
-0.733149544576088

> <r_i_glide_ligand_efficiency_sa>
-1.63050998924392

> <r_i_glide_ligand_efficiency_ln>
-2.37342364695521

> <r_i_glide_gscore>
-8.06464499033697

> <r_i_glide_lipo>
-1.06812162714499

> <r_i_glide_hbond>
-0.608

> <r_i_glide_metal>
-2.3

> <r_i_glide_rewards>
-2.58169218313138

> <r_i_glide_evdw>
-11.9919309616089

> <r_i_glide_ecoul>
-13.3190021514893

> <r_i_glide_erotb>
1.29061569074324

> <r_i_glide_esite>
-0.2

> <r_i_glide_emodel>
-40.3213351386451

> <r_i_glide_energy>
-25.3109331130981

> <r_i_glide_einternal>
0.962781727313995

> <i_i_glide_confnum>
1

> <i_i_glide_posenum>
9

> <r_i_glide_eff_state_penalty>
0

> <s_user_duplicate_titles>
CHEMBL3192_lig511

> <s_m_subgroup_title>
dock_pv

> <s_m_subgroupid>
dock_pv

> <b_m_subgroup_collapsed>
1

$$$$
CHEMBL3192_lig689
                    3D
 Schrodinger Suite 2021-1.
 41 43  0  0  1  0            999 V2000
  -28.7836   29.2767  -40.1821 C   0  0  0  0  0  0
  -28.4889   28.4093  -39.1219 C   0  0  0  0  0  0
  -27.3284   28.6379  -38.3810 C   0  0  0  0  0  0
  -27.9315   30.3335  -40.4952 C   0  0  0  0  0  0
  -26.7879   30.5724  -39.7234 C   0  0  0  0  0  0
  -26.5064   29.7260  -38.6546 C   0  0  0  0  0  0
  -29.4129   27.2587  -38.7891 C   0  0  0  0  0  0
  -29.4129   26.7848  -37.5487 N   0  0  0  0  0  0
  -30.2306   26.8441  -39.5986 O   0  0  0  0  0  0
  -30.2138   25.6662  -37.2466 O   0  0  0  0  0  0
  -25.8800   31.6245  -39.9542 N   0  0  0  0  0  0
  -25.8590   32.5510  -41.0978 C   0  0  2  0  0  0
  -27.0012   33.5304  -41.1312 C   0  0  0  0  0  0
  -27.1026   33.8401  -42.6085 C   0  0  0  0  0  0
  -26.5838   32.6546  -43.3247 N   0  0  0  0  0  0
  -25.8622   31.8551  -42.4738 C   0  0  0  0  0  0
  -25.2505   30.8130  -42.7173 O   0  0  0  0  0  0
  -26.7038   32.4973  -44.7435 C   0  0  0  0  0  0
  -26.2324   31.3665  -45.4401 C   0  0  0  0  0  0
  -26.3379   31.2817  -46.8249 C   0  0  0  0  0  0
  -26.9356   32.3121  -47.5449 C   0  0  0  0  0  0
  -27.4407   33.4256  -46.8762 C   0  0  0  0  0  0
  -27.3202   33.5167  -45.4914 C   0  0  0  0  0  0
  -27.0134   32.2258  -48.9966 C   0  0  0  0  0  0
  -27.0720   32.1546  -50.1503 N   0  0  0  0  0  0
  -29.6730   29.1408  -40.7804 H   0  0  0  0  0  0
  -27.0493   27.9722  -37.5812 H   0  0  0  0  0  0
  -28.1847   30.9592  -41.3352 H   0  0  0  0  0  0
  -25.6351   29.8880  -38.0327 H   0  0  0  0  0  0
  -28.8198   27.0858  -36.7812 H   0  0  0  0  0  0
  -29.5823   24.9421  -37.1745 H   0  0  0  0  0  0
  -25.3398   31.9271  -39.1514 H   0  0  0  0  0  0
  -24.9157   33.1013  -41.0590 H   0  0  0  0  0  0
  -26.8038   34.4272  -40.5412 H   0  0  0  0  0  0
  -27.9272   33.0968  -40.7562 H   0  0  0  0  0  0
  -26.4943   34.7080  -42.8690 H   0  0  0  0  0  0
  -28.1345   34.0611  -42.8870 H   0  0  0  0  0  0
  -25.7660   30.5307  -44.9473 H   0  0  0  0  0  0
  -25.9349   30.4225  -47.3355 H   0  0  0  0  0  0
  -27.9126   34.2323  -47.4205 H   0  0  0  0  0  0
  -27.7069   34.4073  -45.0211 H   0  0  0  0  0  0
  1  2  2  0  0  0
  1  4  1  0  0  0
  1 26  1  0  0  0
  2  3  1  0  0  0
  2  7  1  0  0  0
  3  6  2  0  0  0
  3 27  1  0  0  0
  4  5  2  0  0  0
  4 28  1  0  0  0
  5  6  1  0  0  0
  5 11  1  0  0  0
  6 29  1  0  0  0
  7  8  1  0  0  0
  7  9  2  0  0  0
  8 10  1  0  0  0
  8 30  1  0  0  0
 10 31  1  0  0  0
 11 12  1  0  0  0
 11 32  1  0  0  0
 12 13  1  0  0  0
 12 16  1  0  0  0
 12 33  1  0  0  0
 13 14  1  0  0  0
 13 34  1  0  0  0
 13 35  1  0  0  0
 14 15  1  0  0  0
 14 36  1  0  0  0
 14 37  1  0  0  0
 15 16  1  0  0  0
 15 18  1  0  0  0
 16 17  2  0  0  0
 18 19  2  0  0  0
 18 23  1  0  0  0
 19 20  1  0  0  0
 19 38  1  0  0  0
 20 21  2  0  0  0
 20 39  1  0  0  0
 21 22  1  0  0  0
 21 24  1  0  0  0
 22 23  2  0  0  0
 22 40  1  0  0  0
 23 41  1  0  0  0
 24 25  3  0  0  0
M  END
> <s_m_entry_id>
52859

> <s_m_entry_name>
dock_pv.78

> <s_m_Source_Path>
/home/csk/Desktop/cluster/DUD-E-result/hdac8

> <s_m_Source_File>
dock_pv.maegz

> <i_m_Source_File_Index>
78

> <chembl_id>
CHEMBL3415621

> <chembl_pref_name>
None

> <i_lp_mmshare_version>
53161

> <i_f3d_flags>
0

> <r_lp_tautomer_probability>
1

> <s_lp_Force_Field>
OPLS_2005

> <r_lp_Energy>
45.298798

> <b_lp_Chiralities_Consistent>
1

> <s_lp_Variant>
CHEMBL3192_lig689-1

> <s_i_glide_gridfile>
glide-grid_3f07

> <i_i_glide_lignum>
728

> <i_i_glide_rotatable_bonds>
6

> <r_i_docking_score>
-8.06230777416979

> <r_i_glide_ligand_efficiency>
-0.322492310966792

> <r_i_glide_ligand_efficiency_sa>
-0.942973236692387

> <r_i_glide_ligand_efficiency_ln>
-1.91100855034567

> <r_i_glide_gscore>
-8.06230777416979

> <r_i_glide_lipo>
-1.49155162531172

> <r_i_glide_hbond>
-0.608

> <r_i_glide_metal>
-1.83198204124592

> <r_i_glide_rewards>
-1.34487239065461

> <r_i_glide_evdw>
-27.0976276397705

> <r_i_glide_ecoul>
-13.4435176849365

> <r_i_glide_erotb>
0.834683699062672

> <r_i_glide_esite>
-0.249176381291206

> <r_i_glide_emodel>
-58.6240988264871

> <r_i_glide_energy>
-40.541145324707

> <r_i_glide_einternal>
8.07047271728516

> <i_i_glide_confnum>
1

> <i_i_glide_posenum>
80

> <r_i_glide_eff_state_penalty>
0

> <s_user_duplicate_titles>
CHEMBL3192_lig689

> <s_m_subgroup_title>
dock_pv

> <s_m_subgroupid>
dock_pv

> <b_m_subgroup_collapsed>
1

$$$$
CHEMBL3192_lig1029
                    3D
 Schrodinger Suite 2021-1.
 40 42  0  0  1  0            999 V2000
  -30.2023   26.0106  -37.0526 O   0  0  0  0  0  0
  -29.2567   26.9157  -37.5810 N   0  0  0  0  0  0
  -29.3527   27.2690  -38.8601 C   0  0  0  0  0  0
  -30.2130   26.7579  -39.5810 O   0  0  0  0  0  0
  -28.5745   28.4946  -39.3166 C   0  0  0  0  0  0
  -29.0295   29.7473  -38.9444 C   0  0  0  0  0  0
  -28.5748   30.9060  -39.5480 C   0  0  0  0  0  0
  -27.5453   30.8915  -40.4706 C   0  0  0  0  0  0
  -27.0649   32.2102  -41.0851 C   0  0  0  0  0  0
  -25.6523   32.1027  -41.6838 C   0  0  0  0  0  0
  -25.5141   30.8562  -42.5679 C   0  0  1  0  0  0
  -25.8130   29.5734  -41.7651 C   0  0  0  0  0  0
  -26.9906   29.6430  -40.8080 C   0  0  0  0  0  0
  -27.4961   28.4690  -40.2095 C   0  0  0  0  0  0
  -26.4074   30.9480  -43.7238 N   0  0  0  0  0  0
  -26.0040   31.1324  -45.0580 C   0  0  0  0  0  0
  -27.0130   31.2670  -46.0126 C   0  0  0  0  0  0
  -26.7100   31.3645  -47.3683 C   0  0  0  0  0  0
  -25.3796   31.3455  -47.7933 C   0  0  0  0  0  0
  -25.1067   31.3642  -49.2256 C   0  0  0  0  0  0
  -24.8923   31.3697  -50.3628 N   0  0  0  0  0  0
  -24.3506   31.2690  -46.8382 C   0  0  0  0  0  0
  -22.6744   31.2627  -47.2825 Cl  0  0  0  0  0  0
  -24.6688   31.1599  -45.4824 C   0  0  0  0  0  0
  -30.7368   26.5521  -36.4634 H   0  0  0  0  0  0
  -28.6464   27.3161  -36.8687 H   0  0  0  0  0  0
  -29.8130   29.8434  -38.2131 H   0  0  0  0  0  0
  -29.0130   31.8437  -39.2530 H   0  0  0  0  0  0
  -27.0790   33.0052  -40.3372 H   0  0  0  0  0  0
  -27.7662   32.5127  -41.8619 H   0  0  0  0  0  0
  -24.9184   32.0568  -40.8770 H   0  0  0  0  0  0
  -25.4144   33.0037  -42.2514 H   0  0  0  0  0  0
  -24.4786   30.7980  -42.8939 H   0  0  0  0  0  0
  -25.8556   28.6996  -42.4153 H   0  0  0  0  0  0
  -24.9613   29.4107  -41.1110 H   0  0  0  0  0  0
  -27.0712   27.5154  -40.4899 H   0  0  0  0  0  0
  -27.3980   30.9648  -43.5287 H   0  0  0  0  0  0
  -28.0502   31.2690  -45.7150 H   0  0  0  0  0  0
  -27.5230   31.4314  -48.0800 H   0  0  0  0  0  0
  -23.8524   31.0799  -44.7848 H   0  0  0  0  0  0
  1  2  1  0  0  0
  1 25  1  0  0  0
  2  3  1  0  0  0
  2 26  1  0  0  0
  3  4  2  0  0  0
  3  5  1  0  0  0
  5  6  2  0  0  0
  5 14  1  0  0  0
  6  7  1  0  0  0
  6 27  1  0  0  0
  7  8  2  0  0  0
  7 28  1  0  0  0
  8  9  1  0  0  0
  8 13  1  0  0  0
  9 10  1  0  0  0
  9 29  1  0  0  0
  9 30  1  0  0  0
 10 11  1  0  0  0
 10 31  1  0  0  0
 10 32  1  0  0  0
 11 12  1  0  0  0
 11 15  1  0  0  0
 11 33  1  0  0  0
 12 13  1  0  0  0
 12 34  1  0  0  0
 12 35  1  0  0  0
 13 14  2  0  0  0
 14 36  1  0  0  0
 15 16  1  0  0  0
 15 37  1  0  0  0
 16 17  2  0  0  0
 16 24  1  0  0  0
 17 18  1  0  0  0
 17 38  1  0  0  0
 18 19  2  0  0  0
 18 39  1  0  0  0
 19 20  1  0  0  0
 19 22  1  0  0  0
 20 21  3  0  0  0
 22 23  1  0  0  0
 22 24  2  0  0  0
 24 40  1  0  0  0
M  END
> <s_m_entry_id>
52860

> <s_m_entry_name>
dock_pv.79

> <s_m_Source_Path>
/home/csk/Desktop/cluster/DUD-E-result/hdac8

> <s_m_Source_File>
dock_pv.maegz

> <i_m_Source_File_Index>
79

> <chembl_id>
CHEMBL3357475

> <chembl_pref_name>
None

> <i_lp_mmshare_version>
53161

> <i_f3d_flags>
0

> <r_lp_tautomer_probability>
1

> <s_lp_Force_Field>
OPLS_2005

> <r_lp_Energy>
26.851378

> <b_lp_Chiralities_Consistent>
1

> <s_lp_Variant>
CHEMBL3192_lig1029-2

> <s_i_glide_gridfile>
glide-grid_3f07

> <i_i_glide_lignum>
1098

> <i_i_glide_rotatable_bonds>
5

> <r_i_docking_score>
-8.05847672658405

> <r_i_glide_ligand_efficiency>
-0.335769863607669

> <r_i_glide_ligand_efficiency_sa>
-0.968527881994663

> <r_i_glide_ligand_efficiency_ln>
-1.9287632600734

> <r_i_glide_gscore>
-8.05847672658405

> <r_i_glide_lipo>
-1.43937004588031

> <r_i_glide_hbond>
-0.608

> <r_i_glide_metal>
-2.15799408276678

> <r_i_glide_rewards>
-1.47394478880379

> <r_i_glide_evdw>
-15.164134979248

> <r_i_glide_ecoul>
-13.7687129974365

> <r_i_glide_erotb>
0.649005007565428

> <r_i_glide_esite>
-0.204659118120713

> <r_i_glide_emodel>
-43.3065102897825

> <r_i_glide_energy>
-28.9328479766846

> <r_i_glide_einternal>
7.41318988800049

> <i_i_glide_confnum>
23

> <i_i_glide_posenum>
110

> <r_i_glide_eff_state_penalty>
0

> <s_user_duplicate_titles>
CHEMBL3192_lig1029

> <s_m_subgroup_title>
dock_pv

> <s_m_subgroupid>
dock_pv

> <b_m_subgroup_collapsed>
1

$$$$
CHEMBL3192_lig1030
                    3D
 Schrodinger Suite 2021-1.
 38 40  0  0  1  0            999 V2000
  -30.2130   25.3676  -37.2800 O   0  0  0  0  0  0
  -29.4130   26.5018  -37.5249 N   0  0  0  0  0  0
  -29.4130   27.0338  -38.7519 C   0  0  0  0  0  0
  -30.2416   26.6753  -39.5810 O   0  0  0  0  0  0
  -28.4464   28.1646  -39.0341 C   0  0  0  0  0  0
  -27.2375   28.2177  -38.3660 C   0  0  0  0  0  0
  -26.3449   29.2689  -38.5315 C   0  0  0  0  0  0
  -26.5948   30.2862  -39.4318 C   0  0  0  0  0  0
  -25.5317   31.3651  -39.6451 C   0  0  0  0  0  0
  -26.0800   32.5998  -40.3810 C   0  0  0  0  0  0
  -26.9327   32.2009  -41.5901 C   0  0  2  0  0  0
  -28.1362   31.3459  -41.1368 C   0  0  0  0  0  0
  -27.8008   30.2419  -40.1586 C   0  0  0  0  0  0
  -28.7116   29.1892  -39.9510 C   0  0  0  0  0  0
  -26.1124   31.4608  -42.5531 N   0  0  0  0  0  0
  -26.1857   31.6530  -43.9403 C   0  0  0  0  0  0
  -25.3706   30.8629  -44.7541 C   0  0  0  0  0  0
  -25.4089   31.0552  -46.1358 C   0  0  0  0  0  0
  -26.2696   32.0107  -46.6761 C   0  0  0  0  0  0
  -27.0553   32.7627  -45.8038 C   0  0  0  0  0  0
  -27.0133   32.6020  -44.4572 N   0  0  0  0  0  0
  -29.5816   24.6393  -37.2334 H   0  0  0  0  0  0
  -28.8461   26.7800  -36.7286 H   0  0  0  0  0  0
  -27.0098   27.4459  -37.6474 H   0  0  0  0  0  0
  -25.4162   29.2678  -37.9810 H   0  0  0  0  0  0
  -25.0982   31.6690  -38.6908 H   0  0  0  0  0  0
  -24.7117   30.9332  -40.2202 H   0  0  0  0  0  0
  -26.6791   33.1949  -39.6899 H   0  0  0  0  0  0
  -25.2564   33.2483  -40.6846 H   0  0  0  0  0  0
  -27.3158   33.1066  -42.0621 H   0  0  0  0  0  0
  -28.6130   30.8690  -41.9810 H   0  0  0  0  0  0
  -28.8782   31.9948  -40.6749 H   0  0  0  0  0  0
  -29.6421   29.1898  -40.5011 H   0  0  0  0  0  0
  -25.6072   30.6592  -42.2081 H   0  0  0  0  0  0
  -24.7091   30.1236  -44.3279 H   0  0  0  0  0  0
  -24.7747   30.4690  -46.7811 H   0  0  0  0  0  0
  -26.3213   32.1702  -47.7432 H   0  0  0  0  0  0
  -27.7314   33.5173  -46.1793 H   0  0  0  0  0  0
  1  2  1  0  0  0
  1 22  1  0  0  0
  2  3  1  0  0  0
  2 23  1  0  0  0
  3  4  2  0  0  0
  3  5  1  0  0  0
  5  6  2  0  0  0
  5 14  1  0  0  0
  6  7  1  0  0  0
  6 24  1  0  0  0
  7  8  2  0  0  0
  7 25  1  0  0  0
  8  9  1  0  0  0
  8 13  1  0  0  0
  9 10  1  0  0  0
  9 26  1  0  0  0
  9 27  1  0  0  0
 10 11  1  0  0  0
 10 28  1  0  0  0
 10 29  1  0  0  0
 11 12  1  0  0  0
 11 15  1  0  0  0
 11 30  1  0  0  0
 12 13  1  0  0  0
 12 31  1  0  0  0
 12 32  1  0  0  0
 13 14  2  0  0  0
 14 33  1  0  0  0
 15 16  1  0  0  0
 15 34  1  0  0  0
 16 17  2  0  0  0
 16 21  1  0  0  0
 17 18  1  0  0  0
 17 35  1  0  0  0
 18 19  2  0  0  0
 18 36  1  0  0  0
 19 20  1  0  0  0
 19 37  1  0  0  0
 20 21  2  0  0  0
 20 38  1  0  0  0
M  END
> <s_m_entry_id>
52861

> <s_m_entry_name>
dock_pv.80

> <s_m_Source_Path>
/home/csk/Desktop/cluster/DUD-E-result/hdac8

> <s_m_Source_File>
dock_pv.maegz

> <i_m_Source_File_Index>
80

> <chembl_id>
CHEMBL3357476

> <chembl_pref_name>
None

> <i_lp_mmshare_version>
53161

> <i_f3d_flags>
0

> <r_lp_tautomer_probability>
0.999999772200052

> <s_lp_Force_Field>
OPLS_2005

> <r_lp_Energy>
20.583299

> <b_lp_Chiralities_Consistent>
1

> <s_lp_Variant>
CHEMBL3192_lig1030-1

> <s_i_glide_gridfile>
glide-grid_3f07

> <i_i_glide_lignum>
1099

> <i_i_glide_rotatable_bonds>
5

> <r_i_docking_score>
-8.05771607473277

> <r_i_glide_ligand_efficiency>
-0.383700765463465

> <r_i_glide_ligand_efficiency_sa>
-1.05860131725878

> <r_i_glide_ligand_efficiency_ln>
-1.99225401732925

> <r_i_glide_gscore>
-8.05771607473277

> <r_i_glide_lipo>
-1.35811564105841

> <r_i_glide_hbond>
-0.60571244702641

> <r_i_glide_metal>
-2.3

> <r_i_glide_rewards>
-1.72949138105064

> <r_i_glide_evdw>
-16.7388572692871

> <r_i_glide_ecoul>
-12.8770980834961

> <r_i_glide_erotb>
0.902347502501414

> <r_i_glide_esite>
-0.198236532109953

> <r_i_glide_emodel>
-46.5824683717724

> <r_i_glide_energy>
-29.6159553527832

> <r_i_glide_einternal>
1.66091299057007

> <i_i_glide_confnum>
37

> <i_i_glide_posenum>
122

> <r_i_glide_eff_state_penalty>
0

> <s_user_duplicate_titles>
CHEMBL3192_lig1030

> <s_m_subgroup_title>
dock_pv

> <s_m_subgroupid>
dock_pv

> <b_m_subgroup_collapsed>
1

$$$$
CHEMBL3192_lig272
                    3D
 Schrodinger Suite 2021-1.
 55 57  0  0  1  0            999 V2000
  -23.7564   31.6814  -42.8259 N   0  0  0  0  0  0
  -25.0575   30.1763  -43.8262 C   0  0  0  0  0  0
  -24.0145   30.3170  -44.6068 N   0  0  0  0  0  0
  -23.2821   31.2588  -44.0707 C   0  0  0  0  0  0
  -24.9697   30.9951  -42.7108 C   0  0  0  0  0  0
  -26.0459   31.1904  -41.6914 C   0  0  0  0  0  0
  -26.5302   32.4878  -41.5160 C   0  0  0  0  0  0
  -27.5814   32.7317  -40.6464 C   0  0  0  0  0  0
  -28.1864   31.6691  -39.9829 C   0  0  0  0  0  0
  -27.7439   30.3557  -40.1404 C   0  0  0  0  0  0
  -26.6567   30.1233  -41.0022 C   0  0  0  0  0  0
  -28.5315   29.3111  -39.4386 C   0  0  0  0  0  0
  -28.4583   27.9700  -39.5699 C   0  0  0  0  0  0
  -29.4117   27.1010  -38.9174 C   0  0  0  0  0  0
  -29.4130   27.0862  -37.5810 N   0  0  0  0  0  0
  -30.2325   26.4690  -39.5810 O   0  0  0  0  0  0
  -30.3387   26.2529  -36.9261 O   0  0  0  0  0  0
  -22.1143   31.8122  -44.8675 C   0  0  0  0  0  0
  -26.1796   29.2687  -44.2496 C   0  0  0  0  0  0
  -23.2356   32.7510  -41.9073 C   0  0  2  0  0  0
  -21.7465   33.1346  -42.1105 C   0  0  0  0  0  0
  -20.8000   32.0113  -41.6410 C   0  0  0  0  0  0
  -21.1043   31.5806  -40.1932 C   0  0  0  0  0  0
  -22.5284   31.2690  -40.0040 N   0  0  2  0  0  0
  -23.3737   32.4080  -40.3948 C   0  0  0  0  0  0
  -22.7683   30.8531  -38.6223 C   0  0  0  0  0  0
  -24.1812   30.2789  -38.4396 C   0  0  0  0  0  0
  -26.0967   33.3144  -42.0588 H   0  0  0  0  0  0
  -27.9268   33.7445  -40.5037 H   0  0  0  0  0  0
  -29.0131   31.8738  -39.3232 H   0  0  0  0  0  0
  -26.2971   29.1178  -41.1640 H   0  0  0  0  0  0
  -29.2884   29.6999  -38.7680 H   0  0  0  0  0  0
  -27.7202   27.4878  -40.1927 H   0  0  0  0  0  0
  -28.7720   27.5478  -36.9362 H   0  0  0  0  0  0
  -29.7994   25.5386  -36.5725 H   0  0  0  0  0  0
  -22.0238   31.3299  -45.8422 H   0  0  0  0  0  0
  -22.2383   32.8732  -45.0812 H   0  0  0  0  0  0
  -21.1479   31.6687  -44.3906 H   0  0  0  0  0  0
  -26.9912   29.2692  -43.5281 H   0  0  0  0  0  0
  -26.6233   29.6076  -45.1817 H   0  0  0  0  0  0
  -25.8406   28.2406  -44.3809 H   0  0  0  0  0  0
  -23.8278   33.6406  -42.1192 H   0  0  0  0  0  0
  -21.5311   33.5137  -43.1043 H   0  0  0  0  0  0
  -21.5570   34.0393  -41.5293 H   0  0  0  0  0  0
  -20.8484   31.1316  -42.2816 H   0  0  0  0  0  0
  -19.7671   32.3541  -41.7046 H   0  0  0  0  0  0
  -20.5141   30.6953  -39.9509 H   0  0  0  0  0  0
  -20.7977   32.3569  -39.4882 H   0  0  0  0  0  0
  -23.1152   33.2718  -39.7784 H   0  0  0  0  0  0
  -24.4125   32.2377  -40.1399 H   0  0  0  0  0  0
  -22.0538   30.0692  -38.3718 H   0  0  0  0  0  0
  -22.5843   31.6665  -37.9206 H   0  0  0  0  0  0
  -24.2131   29.6337  -37.5689 H   0  0  0  0  0  0
  -24.9281   31.0630  -38.3110 H   0  0  0  0  0  0
  -24.4750   29.6690  -39.2916 H   0  0  0  0  0  0
  1  4  1  0  0  0
  1  5  1  0  0  0
  1 20  1  0  0  0
  2  3  1  0  0  0
  2 19  1  0  0  0
  2  5  2  0  0  0
  3  4  2  0  0  0
  4 18  1  0  0  0
  5  6  1  0  0  0
  6  7  2  0  0  0
  6 11  1  0  0  0
  7  8  1  0  0  0
  7 28  1  0  0  0
  8  9  2  0  0  0
  8 29  1  0  0  0
  9 10  1  0  0  0
  9 30  1  0  0  0
 10 11  2  0  0  0
 10 12  1  0  0  0
 11 31  1  0  0  0
 12 13  2  0  0  0
 12 32  1  0  0  0
 13 14  1  0  0  0
 13 33  1  0  0  0
 14 15  1  0  0  0
 14 16  2  0  0  0
 15 17  1  0  0  0
 15 34  1  0  0  0
 17 35  1  0  0  0
 18 36  1  0  0  0
 18 37  1  0  0  0
 18 38  1  0  0  0
 19 39  1  0  0  0
 19 40  1  0  0  0
 19 41  1  0  0  0
 20 21  1  0  0  0
 20 25  1  0  0  0
 20 42  1  0  0  0
 21 22  1  0  0  0
 21 43  1  0  0  0
 21 44  1  0  0  0
 22 23  1  0  0  0
 22 45  1  0  0  0
 22 46  1  0  0  0
 23 24  1  0  0  0
 23 47  1  0  0  0
 23 48  1  0  0  0
 24 25  1  0  0  0
 24 26  1  0  0  0
 25 49  1  0  0  0
 25 50  1  0  0  0
 26 27  1  0  0  0
 26 51  1  0  0  0
 26 52  1  0  0  0
 27 53  1  0  0  0
 27 54  1  0  0  0
 27 55  1  0  0  0
M  END
> <s_m_entry_id>
52862

> <s_m_entry_name>
dock_pv.81

> <s_m_Source_Path>
/home/csk/Desktop/cluster/DUD-E-result/hdac8

> <s_m_Source_File>
dock_pv.maegz

> <i_m_Source_File_Index>
81

> <chembl_id>
CHEMBL1095085

> <chembl_pref_name>
None

> <i_lp_mmshare_version>
53161

> <i_f3d_flags>
0

> <r_lp_tautomer_probability>
1

> <s_lp_Force_Field>
OPLS_2005

> <r_lp_Energy>
37.947666

> <b_lp_Chiralities_Consistent>
1

> <s_lp_Variant>
CHEMBL3192_lig272-1

> <s_i_glide_gridfile>
glide-grid_3f07

> <i_i_glide_lignum>
285

> <i_i_glide_rotatable_bonds>
7

> <r_i_docking_score>
-8.04993550293391

> <r_i_glide_ligand_efficiency>
-0.298145759367923

> <r_i_glide_ligand_efficiency_sa>
-0.894437277121128

> <r_i_glide_ligand_efficiency_ln>
-1.87389227152412

> <r_i_glide_gscore>
-8.04993550293391

> <r_i_glide_lipo>
-0.995070577575933

> <r_i_glide_hbond>
-0.650161283648102

> <r_i_glide_metal>
-2.3

> <r_i_glide_rewards>
-1.20666918963031

> <r_i_glide_evdw>
-23.8858489990234

> <r_i_glide_ecoul>
-14.7484130859375

> <r_i_glide_erotb>
0.709653996349162

> <r_i_glide_esite>
-0.201134035586925

> <r_i_glide_emodel>
-46.3167561330456

> <r_i_glide_energy>
-38.6342620849609

> <r_i_glide_einternal>
8.38970947265625

> <i_i_glide_confnum>
178

> <i_i_glide_posenum>
6

> <r_i_glide_eff_state_penalty>
0

> <s_user_duplicate_titles>
CHEMBL3192_lig272,626056

> <s_m_subgroup_title>
dock_pv

> <s_m_subgroupid>
dock_pv

> <b_m_subgroup_collapsed>
1

$$$$
CHEMBL3192_lig840
                    3D
 Schrodinger Suite 2021-1.
 43 45  0  0  1  0            999 V2000
  -23.9647   32.4690  -40.0647 C   0  0  0  0  0  0
  -25.3722   32.1941  -40.3223 N   0  0  0  0  0  0
  -26.2231   32.8894  -41.1640 C   0  0  0  0  0  0
  -25.8251   34.1310  -41.9450 C   0  0  0  0  0  0
  -24.9870   33.8187  -43.2032 C   0  0  0  0  0  0
  -25.6987   32.9164  -44.2047 C   0  0  0  0  0  0
  -26.6519   33.4548  -45.0738 C   0  0  0  0  0  0
  -27.3113   32.6293  -45.9811 C   0  0  0  0  0  0
  -27.0130   31.2690  -46.0178 C   0  0  0  0  0  0
  -26.0655   30.7256  -45.1517 C   0  0  0  0  0  0
  -25.4076   31.5499  -44.2432 C   0  0  0  0  0  0
  -27.4130   32.3499  -41.2589 N   0  0  0  0  0  0
  -27.3461   31.2222  -40.4919 C   0  0  0  0  0  0
  -28.3178   30.2323  -40.3008 C   0  0  0  0  0  0
  -28.0265   29.1585  -39.4513 C   0  0  0  0  0  0
  -29.0455   28.1059  -39.2904 C   0  0  0  0  0  0
  -29.1053   27.1446  -38.3398 C   0  0  0  0  0  0
  -30.1831   26.1807  -38.2711 C   0  0  0  0  0  0
  -31.0126   26.0690  -39.1810 O   0  0  0  0  0  0
  -30.2130   25.4514  -37.1445 N   0  0  0  0  0  0
  -31.2077   24.4690  -37.0133 O   0  0  0  0  0  0
  -26.8000   29.1121  -38.7810 C   0  0  0  0  0  0
  -25.7995   30.0690  -38.9706 C   0  0  0  0  0  0
  -26.0902   31.1128  -39.8517 C   0  0  0  0  0  0
  -23.3558   32.0005  -40.8376 H   0  0  0  0  0  0
  -23.7853   33.5442  -40.0510 H   0  0  0  0  0  0
  -23.6801   32.0690  -39.0920 H   0  0  0  0  0  0
  -26.7119   34.6906  -42.2459 H   0  0  0  0  0  0
  -25.2763   34.8212  -41.3036 H   0  0  0  0  0  0
  -24.7240   34.7507  -43.7060 H   0  0  0  0  0  0
  -24.0289   33.3792  -42.9211 H   0  0  0  0  0  0
  -26.8844   34.5093  -45.0437 H   0  0  0  0  0  0
  -28.0514   33.0405  -46.6523 H   0  0  0  0  0  0
  -27.5305   30.6307  -46.7191 H   0  0  0  0  0  0
  -25.8442   29.6690  -45.1810 H   0  0  0  0  0  0
  -24.6795   31.1275  -43.5660 H   0  0  0  0  0  0
  -29.2650   30.2994  -40.8151 H   0  0  0  0  0  0
  -29.8145   28.1399  -40.0445 H   0  0  0  0  0  0
  -28.3454   27.0804  -37.5810 H   0  0  0  0  0  0
  -29.5681   25.4784  -36.3662 H   0  0  0  0  0  0
  -30.7371   23.6433  -37.1810 H   0  0  0  0  0  0
  -26.5944   28.2896  -38.1136 H   0  0  0  0  0  0
  -24.8446   29.9882  -38.4710 H   0  0  0  0  0  0
  1  2  1  0  0  0
  1 25  1  0  0  0
  1 26  1  0  0  0
  1 27  1  0  0  0
  2  3  1  0  0  0
  2 24  1  0  0  0
  3  4  1  0  0  0
  3 12  2  0  0  0
  4  5  1  0  0  0
  4 28  1  0  0  0
  4 29  1  0  0  0
  5  6  1  0  0  0
  5 30  1  0  0  0
  5 31  1  0  0  0
  6  7  2  0  0  0
  6 11  1  0  0  0
  7  8  1  0  0  0
  7 32  1  0  0  0
  8  9  2  0  0  0
  8 33  1  0  0  0
  9 10  1  0  0  0
  9 34  1  0  0  0
 10 11  2  0  0  0
 10 35  1  0  0  0
 11 36  1  0  0  0
 12 13  1  0  0  0
 13 14  2  0  0  0
 13 24  1  0  0  0
 14 15  1  0  0  0
 14 37  1  0  0  0
 15 16  1  0  0  0
 15 22  2  0  0  0
 16 17  2  0  0  0
 16 38  1  0  0  0
 17 18  1  0  0  0
 17 39  1  0  0  0
 18 19  2  0  0  0
 18 20  1  0  0  0
 20 21  1  0  0  0
 20 40  1  0  0  0
 21 41  1  0  0  0
 22 23  1  0  0  0
 22 42  1  0  0  0
 23 24  2  0  0  0
 23 43  1  0  0  0
M  END
> <s_m_entry_id>
52863

> <s_m_entry_name>
dock_pv.82

> <s_m_Source_Path>
/home/csk/Desktop/cluster/DUD-E-result/hdac8

> <s_m_Source_File>
dock_pv.maegz

> <i_m_Source_File_Index>
82

> <chembl_id>
CHEMBL522269

> <chembl_pref_name>
None

> <i_lp_mmshare_version>
53161

> <i_f3d_flags>
0

> <r_lp_tautomer_probability>
1

> <s_lp_Force_Field>
OPLS_2005

> <r_lp_Energy>
21.381972

> <b_lp_Chiralities_Consistent>
1

> <s_lp_Variant>
CHEMBL3192_lig840-1

> <s_i_glide_gridfile>
glide-grid_3f07

> <i_i_glide_lignum>
896

> <i_i_glide_rotatable_bonds>
7

> <r_i_docking_score>
-8.04831913145105

> <r_i_glide_ligand_efficiency>
-0.335346630477127

> <r_i_glide_ligand_efficiency_sa>
-0.967307066394629

> <r_i_glide_ligand_efficiency_ln>
-1.9263320814564

> <r_i_glide_gscore>
-8.04831913145105

> <r_i_glide_lipo>
-1.3992368298959

> <r_i_glide_hbond>
-0.237535283337535

> <r_i_glide_metal>
-2.3

> <r_i_glide_rewards>
-1.45822808577504

> <r_i_glide_evdw>
-33.7652702331543

> <r_i_glide_ecoul>
-12.3744592666626

> <r_i_glide_erotb>
1.08552817652629

> <r_i_glide_esite>
-0.194414707311761

> <r_i_glide_emodel>
-72.7632426649953

> <r_i_glide_energy>
-46.1397294998169

> <r_i_glide_einternal>
2.47778725624084

> <i_i_glide_confnum>
59

> <i_i_glide_posenum>
353

> <r_i_glide_eff_state_penalty>
0

> <s_user_duplicate_titles>
CHEMBL3192_lig840

> <s_m_subgroup_title>
dock_pv

> <s_m_subgroupid>
dock_pv

> <b_m_subgroup_collapsed>
1

$$$$
CHEMBL3192_lig554
                    3D
 Schrodinger Suite 2021-1.
 40 41  0  0  1  0            999 V2000
  -28.5500   30.3979  -40.6123 C   0  0  0  0  0  0
  -29.2150   29.2690  -40.1723 C   0  0  0  0  0  0
  -28.6230   28.3782  -39.2721 C   0  0  0  0  0  0
  -27.3201   28.6551  -38.8373 C   0  0  0  0  0  0
  -27.2465   30.6596  -40.2169 C   0  0  0  0  0  0
  -26.6114   29.7658  -39.3317 C   0  0  0  0  0  0
  -25.1523   30.0277  -38.9741 C   0  0  0  0  0  0
  -24.8092   31.5204  -39.0808 C   0  0  0  0  0  0
  -25.0940   31.9006  -40.4729 N   0  0  0  0  0  0
  -26.5453   31.9169  -40.7362 C   0  0  0  0  0  0
  -29.4130   27.1654  -38.8233 C   0  0  0  0  0  0
  -29.4129   26.8685  -37.5287 N   0  0  0  0  0  0
  -30.2130   26.6051  -39.5810 O   0  0  0  0  0  0
  -30.2129   25.7995  -37.0738 O   0  0  0  0  0  0
  -24.2553   32.5730  -41.3200 C   0  0  0  0  0  0
  -22.6827   32.4493  -41.3270 C   0  0  0  0  0  0
  -24.7387   33.2506  -42.2357 O   0  0  0  0  0  0
  -22.0735   33.8355  -41.0016 C   0  0  0  0  0  0
  -22.2499   32.0427  -42.7676 C   0  0  0  0  0  0
  -22.0373   31.3964  -40.3832 C   0  0  0  0  0  0
  -29.0538   31.0735  -41.2813 H   0  0  0  0  0  0
  -30.2130   29.1017  -40.5421 H   0  0  0  0  0  0
  -26.8289   27.9834  -38.1484 H   0  0  0  0  0  0
  -24.5097   29.4854  -39.6539 H   0  0  0  0  0  0
  -24.9288   29.6517  -37.9814 H   0  0  0  0  0  0
  -23.8001   31.7546  -38.7692 H   0  0  0  0  0  0
  -25.4354   32.0690  -38.3816 H   0  0  0  0  0  0
  -26.9791   32.7959  -40.2573 H   0  0  0  0  0  0
  -26.7525   32.0098  -41.8039 H   0  0  0  0  0  0
  -28.8389   27.2865  -36.8004 H   0  0  0  0  0  0
  -29.5827   25.0913  -36.9051 H   0  0  0  0  0  0
  -20.9873   33.8308  -41.1030 H   0  0  0  0  0  0
  -22.3018   34.1421  -39.9805 H   0  0  0  0  0  0
  -22.4499   34.6186  -41.6628 H   0  0  0  0  0  0
  -22.6362   31.0605  -43.0445 H   0  0  0  0  0  0
  -22.5952   32.7504  -43.5240 H   0  0  0  0  0  0
  -21.1648   32.0013  -42.8689 H   0  0  0  0  0  0
  -22.6028   30.4691  -40.3522 H   0  0  0  0  0  0
  -21.0332   31.1246  -40.7128 H   0  0  0  0  0  0
  -21.8974   31.7663  -39.3675 H   0  0  0  0  0  0
  1  5  1  0  0  0
  1  2  2  0  0  0
  1 21  1  0  0  0
  2  3  1  0  0  0
  2 22  1  0  0  0
  3  4  2  0  0  0
  3 11  1  0  0  0
  4  6  1  0  0  0
  4 23  1  0  0  0
  5  6  2  0  0  0
  5 10  1  0  0  0
  6  7  1  0  0  0
  7  8  1  0  0  0
  7 24  1  0  0  0
  7 25  1  0  0  0
  8  9  1  0  0  0
  8 26  1  0  0  0
  8 27  1  0  0  0
  9 10  1  0  0  0
  9 15  1  0  0  0
 10 28  1  0  0  0
 10 29  1  0  0  0
 11 12  1  0  0  0
 11 13  2  0  0  0
 12 14  1  0  0  0
 12 30  1  0  0  0
 14 31  1  0  0  0
 15 16  1  0  0  0
 15 17  2  0  0  0
 16 18  1  0  0  0
 16 19  1  0  0  0
 16 20  1  0  0  0
 18 32  1  0  0  0
 18 33  1  0  0  0
 18 34  1  0  0  0
 19 35  1  0  0  0
 19 36  1  0  0  0
 19 37  1  0  0  0
 20 38  1  0  0  0
 20 39  1  0  0  0
 20 40  1  0  0  0
M  END
> <s_m_entry_id>
52864

> <s_m_entry_name>
dock_pv.83

> <s_m_Source_Path>
/home/csk/Desktop/cluster/DUD-E-result/hdac8

> <s_m_Source_File>
dock_pv.maegz

> <i_m_Source_File_Index>
83

> <chembl_id>
CHEMBL2431902

> <chembl_pref_name>
None

> <i_lp_mmshare_version>
53161

> <i_f3d_flags>
0

> <r_lp_tautomer_probability>
1

> <s_lp_Force_Field>
OPLS_2005

> <r_lp_Energy>
42.381291

> <b_lp_Chiralities_Consistent>
1

> <s_lp_Variant>
CHEMBL3192_lig554-1

> <s_i_glide_gridfile>
glide-grid_3f07

> <i_i_glide_lignum>
575

> <i_i_glide_rotatable_bonds>
5

> <r_i_docking_score>
-8.04684924451325

> <r_i_glide_ligand_efficiency>
-0.402342462225663

> <r_i_glide_ligand_efficiency_sa>
-1.09212546627894

> <r_i_glide_ligand_efficiency_ln>
-2.01386096305096

> <r_i_glide_gscore>
-8.04684924451325

> <r_i_glide_lipo>
-1.06032557597317

> <r_i_glide_hbond>
-0.608

> <r_i_glide_metal>
-2.3

> <r_i_glide_rewards>
-1.73120885202581

> <r_i_glide_evdw>
-15.6432981491089

> <r_i_glide_ecoul>
-13.3313808441162

> <r_i_glide_erotb>
0.706786114016778

> <r_i_glide_esite>
-0.272228896458174

> <r_i_glide_emodel>
-43.6232970235972

> <r_i_glide_energy>
-28.9746789932251

> <r_i_glide_einternal>
3.35711097717285

> <i_i_glide_confnum>
9

> <i_i_glide_posenum>
314

> <r_i_glide_eff_state_penalty>
0

> <s_user_duplicate_titles>
CHEMBL3192_lig554

> <s_m_subgroup_title>
dock_pv

> <s_m_subgroupid>
dock_pv

> <b_m_subgroup_collapsed>
1

$$$$
CHEMBL3192_lig677
                    3D
 Schrodinger Suite 2021-1.
 43 45  0  0  1  0            999 V2000
  -27.5709   28.0406  -38.4159 C   0  0  0  0  0  0
  -28.7320   28.0379  -39.1810 C   0  0  0  0  0  0
  -28.9504   29.1252  -40.0471 C   0  0  0  0  0  0
  -26.6130   29.0255  -38.6016 C   0  0  0  0  0  0
  -26.7606   30.0373  -39.5586 C   0  0  0  0  0  0
  -27.9775   30.1035  -40.2394 C   0  0  0  0  0  0
  -29.7188   26.8859  -39.1351 C   0  0  0  0  0  0
  -29.6525   25.9722  -38.1579 N   0  0  0  0  0  0
  -30.6130   26.8690  -39.9810 O   0  0  0  0  0  0
  -30.5286   24.8690  -38.2199 O   0  0  0  0  0  0
  -25.7390   31.0029  -39.7827 N   0  0  0  0  0  0
  -25.0961   31.2373  -41.1077 C   0  0  2  0  0  0
  -24.6456   32.6728  -41.3128 C   0  0  0  0  0  0
  -25.5781   33.1978  -42.3689 C   0  0  0  0  0  0
  -26.0125   32.0234  -43.1340 N   0  0  0  0  0  0
  -25.8460   30.8690  -42.4153 C   0  0  0  0  0  0
  -26.2037   29.7269  -42.7173 O   0  0  0  0  0  0
  -26.6310   32.1411  -44.4090 C   0  0  0  0  0  0
  -26.6122   31.0987  -45.3520 C   0  0  0  0  0  0
  -27.1994   31.2690  -46.6045 C   0  0  0  0  0  0
  -27.8130   32.4744  -46.9260 C   0  0  0  0  0  0
  -27.8385   33.5188  -46.0085 C   0  0  0  0  0  0
  -27.2426   33.3559  -44.7611 C   0  0  0  0  0  0
  -24.7931   31.1819  -38.6715 C   0  0  0  0  0  0
  -27.3670   27.2690  -37.6930 H   0  0  0  0  0  0
  -29.8528   29.1986  -40.6365 H   0  0  0  0  0  0
  -25.7127   28.9395  -38.0160 H   0  0  0  0  0  0
  -28.1659   30.9020  -40.9404 H   0  0  0  0  0  0
  -29.0130   25.9380  -37.3755 H   0  0  0  0  0  0
  -29.9435   24.0962  -38.1679 H   0  0  0  0  0  0
  -24.2061   30.6048  -41.1467 H   0  0  0  0  0  0
  -24.6866   33.3111  -40.4288 H   0  0  0  0  0  0
  -23.6148   32.6970  -41.6714 H   0  0  0  0  0  0
  -25.0812   33.9268  -43.0107 H   0  0  0  0  0  0
  -26.4469   33.6863  -41.9249 H   0  0  0  0  0  0
  -26.1294   30.1572  -45.1384 H   0  0  0  0  0  0
  -27.1852   30.4691  -47.3290 H   0  0  0  0  0  0
  -28.2761   32.5978  -47.8947 H   0  0  0  0  0  0
  -28.3165   34.4528  -46.2656 H   0  0  0  0  0  0
  -27.2763   34.1852  -44.0707 H   0  0  0  0  0  0
  -25.3242   31.2691  -37.7227 H   0  0  0  0  0  0
  -24.1163   30.3292  -38.5964 H   0  0  0  0  0  0
  -24.1732   32.0690  -38.7810 H   0  0  0  0  0  0
  1  2  2  0  0  0
  1  4  1  0  0  0
  1 25  1  0  0  0
  2  3  1  0  0  0
  2  7  1  0  0  0
  3  6  2  0  0  0
  3 26  1  0  0  0
  4  5  2  0  0  0
  4 27  1  0  0  0
  5  6  1  0  0  0
  5 11  1  0  0  0
  6 28  1  0  0  0
  7  8  1  0  0  0
  7  9  2  0  0  0
  8 10  1  0  0  0
  8 29  1  0  0  0
 10 30  1  0  0  0
 11 12  1  0  0  0
 11 24  1  0  0  0
 12 13  1  0  0  0
 12 16  1  0  0  0
 12 31  1  0  0  0
 13 14  1  0  0  0
 13 32  1  0  0  0
 13 33  1  0  0  0
 14 15  1  0  0  0
 14 34  1  0  0  0
 14 35  1  0  0  0
 15 16  1  0  0  0
 15 18  1  0  0  0
 16 17  2  0  0  0
 18 19  2  0  0  0
 18 23  1  0  0  0
 19 20  1  0  0  0
 19 36  1  0  0  0
 20 21  2  0  0  0
 20 37  1  0  0  0
 21 22  1  0  0  0
 21 38  1  0  0  0
 22 23  2  0  0  0
 22 39  1  0  0  0
 23 40  1  0  0  0
 24 41  1  0  0  0
 24 42  1  0  0  0
 24 43  1  0  0  0
M  END
> <s_m_entry_id>
52865

> <s_m_entry_name>
dock_pv.84

> <s_m_Source_Path>
/home/csk/Desktop/cluster/DUD-E-result/hdac8

> <s_m_Source_File>
dock_pv.maegz

> <i_m_Source_File_Index>
84

> <chembl_id>
CHEMBL3415447

> <chembl_pref_name>
None

> <i_lp_mmshare_version>
53161

> <i_f3d_flags>
0

> <r_lp_tautomer_probability>
1

> <s_lp_Force_Field>
OPLS_2005

> <r_lp_Energy>
51.536874

> <b_lp_Chiralities_Consistent>
1

> <s_lp_Variant>
CHEMBL3192_lig677-1

> <s_i_glide_gridfile>
glide-grid_3f07

> <i_i_glide_lignum>
705

> <i_i_glide_rotatable_bonds>
6

> <r_i_docking_score>
-8.04640484316181

> <r_i_glide_ligand_efficiency>
-0.335266868465076

> <r_i_glide_ligand_efficiency_sa>
-0.967076992939657

> <r_i_glide_ligand_efficiency_ln>
-1.92587390442782

> <r_i_glide_gscore>
-8.04640484316181

> <r_i_glide_lipo>
-1.41343278749611

> <r_i_glide_hbond>
-0.366165747718374

> <r_i_glide_metal>
-2.3

> <r_i_glide_rewards>
-0.974135279569838

> <r_i_glide_evdw>
-19.385383605957

> <r_i_glide_ecoul>
-18.0569343566895

> <r_i_glide_erotb>
0.885138305423774

> <r_i_glide_esite>
-0.2

> <r_i_glide_emodel>
-54.3276200293709

> <r_i_glide_energy>
-37.4423179626465

> <r_i_glide_einternal>
8.05624008178711

> <i_i_glide_confnum>
41

> <i_i_glide_posenum>
1

> <r_i_glide_eff_state_penalty>
0

> <s_user_duplicate_titles>
CHEMBL3192_lig677

> <s_m_subgroup_title>
dock_pv

> <s_m_subgroupid>
dock_pv

> <b_m_subgroup_collapsed>
1

$$$$
CHEMBL3192_lig540
                    3D
 Schrodinger Suite 2021-1.
 48 50  0  0  1  0            999 V2000
  -27.9600   28.7368  -39.7205 C   0  0  0  0  0  0
  -28.2016   27.8379  -38.7321 C   0  0  0  0  0  0
  -29.4130   27.0284  -38.6498 C   0  0  0  0  0  0
  -30.2128   26.8690  -39.5809 O   0  0  0  0  0  0
  -29.6252   26.4692  -37.4509 N   0  0  0  0  0  0
  -30.7020   25.5762  -37.2978 O   0  0  0  0  0  0
  -26.7421   29.5872  -39.9263 C   0  0  0  0  0  0
  -26.5236   30.1693  -41.1877 C   0  0  0  0  0  0
  -25.3681   30.8819  -41.4798 C   0  0  0  0  0  0
  -25.7482   29.7735  -38.9467 C   0  0  0  0  0  0
  -24.5617   30.4683  -39.2571 C   0  0  0  0  0  0
  -24.3794   31.0106  -40.5228 C   0  0  0  0  0  0
  -23.1899   31.6217  -40.9124 N   0  0  0  0  0  0
  -22.2225   31.7417  -40.0806 C   0  0  0  0  0  0
  -22.3092   31.2688  -38.7767 N   0  0  0  0  0  0
  -23.3997   30.5693  -38.2848 C   0  0  0  0  0  0
  -23.4130   30.0694  -37.1593 O   0  0  0  0  0  0
  -20.9497   32.4126  -40.6073 C   0  0  0  0  0  0
  -21.2758   31.6206  -37.7594 C   0  0  0  0  0  0
  -20.2837   30.5049  -37.3465 C   0  0  0  0  0  0
  -20.2201   30.1350  -35.8590 C   0  0  0  0  0  0
  -19.7307   28.8711  -35.5131 C   0  0  0  0  0  0
  -19.6443   28.4862  -34.1779 C   0  0  0  0  0  0
  -20.0429   29.3712  -33.1813 C   0  0  0  0  0  0
  -20.5271   30.6355  -33.5056 C   0  0  0  0  0  0
  -20.6035   31.0226  -34.8416 C   0  0  0  0  0  0
  -19.8694   31.3819  -40.9868 C   0  0  0  0  0  0
  -27.4130   30.0203  -42.1831 F   0  0  0  0  0  0
  -28.7287   28.8691  -40.4705 H   0  0  0  0  0  0
  -27.4755   27.6821  -37.9478 H   0  0  0  0  0  0
  -29.0646   26.5831  -36.6129 H   0  0  0  0  0  0
  -30.2765   24.7188  -37.1819 H   0  0  0  0  0  0
  -25.2184   31.2961  -42.4648 H   0  0  0  0  0  0
  -25.8673   29.3131  -37.9810 H   0  0  0  0  0  0
  -21.1847   33.0044  -41.4939 H   0  0  0  0  0  0
  -20.5628   33.1487  -39.9056 H   0  0  0  0  0  0
  -20.7228   32.5319  -37.9767 H   0  0  0  0  0  0
  -21.8173   31.9416  -36.8738 H   0  0  0  0  0  0
  -20.5334   29.6101  -37.9093 H   0  0  0  0  0  0
  -19.2831   30.7619  -37.6955 H   0  0  0  0  0  0
  -19.4126   28.1793  -36.2791 H   0  0  0  0  0  0
  -19.2655   27.5090  -33.9126 H   0  0  0  0  0  0
  -19.9708   29.0744  -32.1445 H   0  0  0  0  0  0
  -20.8256   31.3158  -32.7204 H   0  0  0  0  0  0
  -20.9514   32.0203  -35.0592 H   0  0  0  0  0  0
  -18.9794   31.8800  -41.3723 H   0  0  0  0  0  0
  -19.5611   30.7786  -40.1330 H   0  0  0  0  0  0
  -20.2216   30.6995  -41.7622 H   0  0  0  0  0  0
  1  2  2  0  0  0
  1  7  1  0  0  0
  1 29  1  0  0  0
  2  3  1  0  0  0
  2 30  1  0  0  0
  3  4  2  0  0  0
  3  5  1  0  0  0
  5  6  1  0  0  0
  5 31  1  0  0  0
  6 32  1  0  0  0
  7  8  2  0  0  0
  7 10  1  0  0  0
  8  9  1  0  0  0
  8 28  1  0  0  0
  9 12  2  0  0  0
  9 33  1  0  0  0
 10 11  2  0  0  0
 10 34  1  0  0  0
 11 12  1  0  0  0
 11 16  1  0  0  0
 12 13  1  0  0  0
 13 14  2  0  0  0
 14 15  1  0  0  0
 14 18  1  0  0  0
 15 16  1  0  0  0
 15 19  1  0  0  0
 16 17  2  0  0  0
 18 27  1  0  0  0
 18 35  1  0  0  0
 18 36  1  0  0  0
 19 20  1  0  0  0
 19 37  1  0  0  0
 19 38  1  0  0  0
 20 21  1  0  0  0
 20 39  1  0  0  0
 20 40  1  0  0  0
 21 22  2  0  0  0
 21 26  1  0  0  0
 22 23  1  0  0  0
 22 41  1  0  0  0
 23 24  2  0  0  0
 23 42  1  0  0  0
 24 25  1  0  0  0
 24 43  1  0  0  0
 25 26  2  0  0  0
 25 44  1  0  0  0
 26 45  1  0  0  0
 27 46  1  0  0  0
 27 47  1  0  0  0
 27 48  1  0  0  0
M  END
> <s_m_entry_id>
52866

> <s_m_entry_name>
dock_pv.85

> <s_m_Source_Path>
/home/csk/Desktop/cluster/DUD-E-result/hdac8

> <s_m_Source_File>
dock_pv.maegz

> <i_m_Source_File_Index>
85

> <chembl_id>
CHEMBL2425968

> <chembl_pref_name>
None

> <i_lp_mmshare_version>
53161

> <i_f3d_flags>
0

> <r_lp_tautomer_probability>
1

> <s_lp_Force_Field>
OPLS_2005

> <r_lp_Energy>
39.699479

> <b_lp_Chiralities_Consistent>
1

> <s_lp_Variant>
CHEMBL3192_lig540-1

> <s_i_glide_gridfile>
glide-grid_3f07

> <i_i_glide_lignum>
561

> <i_i_glide_rotatable_bonds>
8

> <r_i_docking_score>
-8.04210344866069

> <r_i_glide_ligand_efficiency>
-0.28721798030931

> <r_i_glide_ligand_efficiency_sa>
-0.872162950562911

> <r_i_glide_ligand_efficiency_ln>
-1.85635360236847

> <r_i_glide_gscore>
-8.04210344866069

> <r_i_glide_lipo>
-1.41804277338574

> <r_i_glide_hbond>
-0.578642220531027

> <r_i_glide_metal>
-1.64056693285021

> <r_i_glide_rewards>
-0.982742636192694

> <r_i_glide_evdw>
-28.9825439453125

> <r_i_glide_ecoul>
-16.4439163208008

> <r_i_glide_erotb>
0.800626841151871

> <r_i_glide_esite>
-0.307021081467145

> <r_i_glide_emodel>
-66.0219719897111

> <r_i_glide_energy>
-45.4264602661133

> <r_i_glide_einternal>
8.81780052185059

> <i_i_glide_confnum>
11

> <i_i_glide_posenum>
103

> <r_i_glide_eff_state_penalty>
0

> <s_user_duplicate_titles>
CHEMBL3192_lig540

> <s_m_subgroup_title>
dock_pv

> <s_m_subgroupid>
dock_pv

> <b_m_subgroup_collapsed>
1

$$$$
CHEMBL3192_lig1040
                    3D
 Schrodinger Suite 2021-1.
 47 50  0  0  1  0            999 V2000
  -29.8130   25.7588  -37.4928 O   0  0  0  0  0  0
  -29.0468   26.8438  -37.9810 N   0  0  0  0  0  0
  -29.3863   27.3418  -39.1639 C   0  0  0  0  0  0
  -30.3349   26.8690  -39.8071 O   0  0  0  0  0  0
  -28.6795   28.6189  -39.5810 C   0  0  0  0  0  0
  -29.4130   29.6391  -40.1876 C   0  0  0  0  0  0
  -28.8458   30.8690  -40.4644 C   0  0  0  0  0  0
  -27.4979   31.1088  -40.2345 C   0  0  0  0  0  0
  -26.9359   32.5104  -40.4818 C   0  0  0  0  0  0
  -25.4555   32.4597  -40.8435 C   0  0  0  0  0  0
  -24.7043   31.6607  -39.7595 C   0  0  1  0  0  0
  -25.1679   30.1922  -39.7197 C   0  0  0  0  0  0
  -26.6933   30.0503  -39.7509 C   0  0  0  0  0  0
  -27.3081   28.8401  -39.3789 C   0  0  0  0  0  0
  -23.2403   31.7398  -39.8472 N   0  0  0  0  0  0
  -22.4424   31.6690  -40.9986 C   0  0  0  0  0  0
  -21.1071   31.6288  -40.7663 N   0  0  0  0  0  0
  -20.3020   31.5212  -41.8523 C   0  0  0  0  0  0
  -20.8061   31.4585  -43.1521 C   0  0  0  0  0  0
  -22.1989   31.5111  -43.3172 C   0  0  0  0  0  0
  -23.0096   31.6198  -42.2322 N   0  0  0  0  0  0
  -22.8616   31.5080  -44.6646 C   0  0  0  0  0  0
  -22.2130   32.1611  -45.7260 C   0  0  0  0  0  0
  -22.7795   32.2401  -46.9962 C   0  0  0  0  0  0
  -24.0234   31.6690  -47.2363 C   0  0  0  0  0  0
  -24.6868   31.0080  -46.2078 C   0  0  0  0  0  0
  -24.1174   30.9088  -44.9370 C   0  0  0  0  0  0
  -25.0130   29.9879  -43.7738 Cl  0  0  0  0  0  0
  -29.2154   25.0038  -37.5655 H   0  0  0  0  0  0
  -28.3585   27.1874  -37.3195 H   0  0  0  0  0  0
  -30.4568   29.5190  -40.4074 H   0  0  0  0  0  0
  -29.4685   31.6518  -40.8641 H   0  0  0  0  0  0
  -27.4902   33.0212  -41.2704 H   0  0  0  0  0  0
  -27.0572   33.1118  -39.5810 H   0  0  0  0  0  0
  -25.3877   31.9938  -41.8233 H   0  0  0  0  0  0
  -25.0487   33.4682  -40.9335 H   0  0  0  0  0  0
  -24.9503   32.0690  -38.7810 H   0  0  0  0  0  0
  -24.7531   29.6838  -38.8476 H   0  0  0  0  0  0
  -24.7745   29.6736  -40.5951 H   0  0  0  0  0  0
  -26.6902   28.0532  -38.9721 H   0  0  0  0  0  0
  -22.7424   31.7967  -38.9691 H   0  0  0  0  0  0
  -19.2386   31.4844  -41.6645 H   0  0  0  0  0  0
  -20.1305   31.3640  -43.9862 H   0  0  0  0  0  0
  -21.2547   32.6344  -45.5686 H   0  0  0  0  0  0
  -22.2568   32.7542  -47.7897 H   0  0  0  0  0  0
  -24.4709   31.7354  -48.2172 H   0  0  0  0  0  0
  -25.6476   30.5538  -46.4024 H   0  0  0  0  0  0
  1  2  1  0  0  0
  1 29  1  0  0  0
  2  3  1  0  0  0
  2 30  1  0  0  0
  3  4  2  0  0  0
  3  5  1  0  0  0
  5  6  2  0  0  0
  5 14  1  0  0  0
  6  7  1  0  0  0
  6 31  1  0  0  0
  7  8  2  0  0  0
  7 32  1  0  0  0
  8  9  1  0  0  0
  8 13  1  0  0  0
  9 10  1  0  0  0
  9 33  1  0  0  0
  9 34  1  0  0  0
 10 11  1  0  0  0
 10 35  1  0  0  0
 10 36  1  0  0  0
 11 12  1  0  0  0
 11 15  1  0  0  0
 11 37  1  0  0  0
 12 13  1  0  0  0
 12 38  1  0  0  0
 12 39  1  0  0  0
 13 14  2  0  0  0
 14 40  1  0  0  0
 15 16  1  0  0  0
 15 41  1  0  0  0
 16 17  2  0  0  0
 16 21  1  0  0  0
 17 18  1  0  0  0
 18 19  2  0  0  0
 18 42  1  0  0  0
 19 20  1  0  0  0
 19 43  1  0  0  0
 20 21  2  0  0  0
 20 22  1  0  0  0
 22 23  2  0  0  0
 22 27  1  0  0  0
 23 24  1  0  0  0
 23 44  1  0  0  0
 24 25  2  0  0  0
 24 45  1  0  0  0
 25 26  1  0  0  0
 25 46  1  0  0  0
 26 27  2  0  0  0
 26 47  1  0  0  0
 27 28  1  0  0  0
M  END
> <s_m_entry_id>
52867

> <s_m_entry_name>
dock_pv.86

> <s_m_Source_Path>
/home/csk/Desktop/cluster/DUD-E-result/hdac8

> <s_m_Source_File>
dock_pv.maegz

> <i_m_Source_File_Index>
86

> <chembl_id>
CHEMBL3357481

> <chembl_pref_name>
None

> <i_lp_mmshare_version>
53161

> <i_f3d_flags>
0

> <r_lp_tautomer_probability>
0.999999987636

> <s_lp_Force_Field>
OPLS_2005

> <r_lp_Energy>
25.743453

> <b_lp_Chiralities_Consistent>
1

> <s_lp_Variant>
CHEMBL3192_lig1040-2

> <s_i_glide_gridfile>
glide-grid_3f07

> <i_i_glide_lignum>
1120

> <i_i_glide_rotatable_bonds>
6

> <r_i_docking_score>
-8.04148009242189

> <r_i_glide_ligand_efficiency>
-0.287195717586496

> <r_i_glide_ligand_efficiency_sa>
-0.872095347824405

> <r_i_glide_ligand_efficiency_ln>
-1.85620971344603

> <r_i_glide_gscore>
-8.04148009242189

> <r_i_glide_lipo>
-1.44683047305062

> <r_i_glide_hbond>
-0.596042151921754

> <r_i_glide_metal>
-2.3

> <r_i_glide_rewards>
-0.948092841538075

> <r_i_glide_evdw>
-19.4992504119873

> <r_i_glide_ecoul>
-14.2007274627686

> <r_i_glide_erotb>
0.626935321326681

> <r_i_glide_esite>
-0.272378307223482

> <r_i_glide_emodel>
-48.0992528982523

> <r_i_glide_energy>
-33.6999778747559

> <r_i_glide_einternal>
10.9767999649048

> <i_i_glide_confnum>
19

> <i_i_glide_posenum>
153

> <r_i_glide_eff_state_penalty>
0

> <s_user_duplicate_titles>
CHEMBL3192_lig1040

> <s_m_subgroup_title>
dock_pv

> <s_m_subgroupid>
dock_pv

> <b_m_subgroup_collapsed>
1

$$$$
CHEMBL3192_lig192
                    3D
 Schrodinger Suite 2021-1.
 48 50  0  0  1  0            999 V2000
  -27.0529   29.0106  -38.4630 C   0  0  0  0  0  0
  -28.1070   28.8885  -39.3743 C   0  0  0  0  0  0
  -28.1222   29.7442  -40.4772 C   0  0  0  0  0  0
  -26.0265   29.9241  -38.6796 C   0  0  0  0  0  0
  -26.0268   30.7565  -39.7941 C   0  0  0  0  0  0
  -27.1073   30.6877  -40.6949 C   0  0  0  0  0  0
  -25.2876   32.8935  -40.9724 C   0  0  2  0  0  0
  -24.8617   31.7113  -40.0620 C   0  0  0  0  0  0
  -25.9107   32.3161  -42.1740 N   0  0  1  0  0  0
  -27.1894   31.6901  -41.8449 C   0  0  0  0  0  0
  -24.0846   33.7933  -41.3815 C   0  0  0  0  0  0
  -23.9045   34.0968  -42.5669 O   0  0  0  0  0  0
  -23.3065   34.2692  -40.3811 N   0  0  0  0  0  0
  -22.1603   35.0716  -40.5317 C   0  0  0  0  0  0
  -21.2267   34.8708  -41.5569 C   0  0  0  0  0  0
  -20.0943   35.6772  -41.6359 C   0  0  0  0  0  0
  -19.8777   36.6879  -40.6864 C   0  0  0  0  0  0
  -20.8082   36.8741  -39.6645 C   0  0  0  0  0  0
  -21.9406   36.0690  -39.5831 C   0  0  0  0  0  0
  -25.9817   33.5693  -40.4670 H   0  0  0  0  0  0
  -29.1390   27.9725  -39.2460 O   0  0  0  0  0  0
  -29.1835   27.1482  -38.0727 C   0  0  0  0  0  0
  -30.2935   26.0955  -38.1763 C   0  0  0  0  0  0
  -31.0130   26.0690  -39.1810 O   0  0  0  0  0  0
  -30.4286   25.2690  -37.1258 N   0  0  0  0  0  0
  -31.4130   24.2699  -37.1812 O   0  0  0  0  0  0
  -18.7836   37.5309  -40.6820 O   0  0  0  0  0  0
  -17.7846   37.3768  -41.6841 C   0  0  0  0  0  0
  -27.0122   28.3931  -37.5812 H   0  0  0  0  0  0
  -28.9465   29.6813  -41.1723 H   0  0  0  0  0  0
  -25.2042   29.9746  -37.9811 H   0  0  0  0  0  0
  -24.4463   32.0690  -39.1202 H   0  0  0  0  0  0
  -24.0758   31.1338  -40.5531 H   0  0  0  0  0  0
  -26.0363   33.0427  -42.8679 H   0  0  0  0  0  0
  -27.5400   31.1914  -42.7484 H   0  0  0  0  0  0
  -27.9182   32.4571  -41.5810 H   0  0  0  0  0  0
  -23.6057   34.1148  -39.4213 H   0  0  0  0  0  0
  -21.3673   34.0878  -42.2874 H   0  0  0  0  0  0
  -19.3945   35.4989  -42.4371 H   0  0  0  0  0  0
  -20.6461   37.6447  -38.9258 H   0  0  0  0  0  0
  -22.6465   36.2163  -38.7810 H   0  0  0  0  0  0
  -29.3981   27.7673  -37.1989 H   0  0  0  0  0  0
  -28.2346   26.6258  -37.9810 H   0  0  0  0  0  0
  -29.8669   25.2309  -36.2849 H   0  0  0  0  0  0
  -30.9099   23.4646  -37.3592 H   0  0  0  0  0  0
  -16.9951   38.1098  -41.5206 H   0  0  0  0  0  0
  -17.3270   36.3871  -41.6450 H   0  0  0  0  0  0
  -18.1902   37.5458  -42.6828 H   0  0  0  0  0  0
  1  4  1  0  0  0
  1  2  2  0  0  0
  1 29  1  0  0  0
  2  3  1  0  0  0
  2 21  1  0  0  0
  3  6  2  0  0  0
  3 30  1  0  0  0
  4  5  2  0  0  0
  4 31  1  0  0  0
  5  8  1  0  0  0
  5  6  1  0  0  0
  6 10  1  0  0  0
  7  8  1  0  0  0
  7 20  1  0  0  0
  7  9  1  0  0  0
  7 11  1  0  0  0
  8 32  1  0  0  0
  8 33  1  0  0  0
  9 10  1  0  0  0
  9 34  1  0  0  0
 10 35  1  0  0  0
 10 36  1  0  0  0
 11 12  2  0  0  0
 11 13  1  0  0  0
 13 14  1  0  0  0
 13 37  1  0  0  0
 14 15  2  0  0  0
 14 19  1  0  0  0
 15 16  1  0  0  0
 15 38  1  0  0  0
 16 17  2  0  0  0
 16 39  1  0  0  0
 17 18  1  0  0  0
 17 27  1  0  0  0
 18 19  2  0  0  0
 18 40  1  0  0  0
 19 41  1  0  0  0
 21 22  1  0  0  0
 22 23  1  0  0  0
 22 42  1  0  0  0
 22 43  1  0  0  0
 23 24  2  0  0  0
 23 25  1  0  0  0
 25 26  1  0  0  0
 25 44  1  0  0  0
 26 45  1  0  0  0
 27 28  1  0  0  0
 28 46  1  0  0  0
 28 47  1  0  0  0
 28 48  1  0  0  0
M  END
> <s_m_entry_id>
52868

> <s_m_entry_name>
dock_pv.87

> <s_m_Source_Path>
/home/csk/Desktop/cluster/DUD-E-result/hdac8

> <s_m_Source_File>
dock_pv.maegz

> <i_m_Source_File_Index>
87

> <chembl_id>
CHEMBL591494

> <chembl_pref_name>
None

> <i_lp_mmshare_version>
53161

> <i_f3d_flags>
0

> <r_lp_tautomer_probability>
1

> <s_lp_Force_Field>
OPLS_2005

> <r_lp_Energy>
45.951206

> <b_lp_Chiralities_Consistent>
1

> <s_lp_Variant>
CHEMBL3192_lig192-1

> <s_i_glide_gridfile>
glide-grid_3f07

> <i_i_glide_lignum>
202

> <i_i_glide_rotatable_bonds>
9

> <r_i_docking_score>
-8.03193069261157

> <r_i_glide_ligand_efficiency>
-0.297478914541169

> <r_i_glide_ligand_efficiency_sa>
-0.892436742643066

> <r_i_glide_ligand_efficiency_ln>
-1.86970104851358

> <r_i_glide_gscore>
-8.03193069261157

> <r_i_glide_lipo>
-1.03259850394319

> <r_i_glide_hbond>
-0.557852562739668

> <r_i_glide_metal>
-2.3

> <r_i_glide_rewards>
-0.925379256486488

> <r_i_glide_evdw>
-28.1241607666016

> <r_i_glide_ecoul>
-17.2145023345947

> <r_i_glide_erotb>
0.979624262273968

> <r_i_glide_esite>
-0.207341243196915

> <r_i_glide_emodel>
-69.6380039128452

> <r_i_glide_energy>
-45.3386631011963

> <r_i_glide_einternal>
7.91488027572632

> <i_i_glide_confnum>
13

> <i_i_glide_posenum>
223

> <r_i_glide_eff_state_penalty>
0

> <s_user_duplicate_titles>
CHEMBL3192_lig192

> <s_m_subgroup_title>
dock_pv

> <s_m_subgroupid>
dock_pv

> <b_m_subgroup_collapsed>
1

$$$$
CHEMBL3192_lig858
                    3D
 Schrodinger Suite 2021-1.
 53 56  0  0  1  0            999 V2000
  -31.2041   24.4695  -37.0151 O   0  0  0  0  0  0
  -30.2132   25.4573  -37.1411 N   0  0  0  0  0  0
  -30.1775   26.1840  -38.2694 C   0  0  0  0  0  0
  -31.0062   26.0690  -39.1810 O   0  0  0  0  0  0
  -29.0954   27.1456  -38.3402 C   0  0  0  0  0  0
  -29.0342   28.0992  -39.2984 C   0  0  0  0  0  0
  -28.0154   29.1512  -39.4845 C   0  0  0  0  0  0
  -26.8040   29.1641  -38.7830 C   0  0  0  0  0  0
  -25.8121   30.1252  -39.0086 C   0  0  0  0  0  0
  -26.0966   31.1167  -39.9546 C   0  0  0  0  0  0
  -27.3369   31.1607  -40.6297 C   0  0  0  0  0  0
  -28.2971   30.1679  -40.4036 C   0  0  0  0  0  0
  -27.4130   32.2426  -41.4572 N   0  0  0  0  0  0
  -26.2509   32.8366  -41.3526 C   0  0  0  0  0  0
  -25.8671   34.1075  -42.1091 C   0  0  0  0  0  0
  -26.9026   34.6195  -43.1474 C   0  0  0  0  0  0
  -27.1577   33.7642  -44.3945 C   0  0  0  0  0  0
  -26.3503   32.6711  -44.7341 C   0  0  0  0  0  0
  -26.6160   31.9289  -45.8822 C   0  0  0  0  0  0
  -27.6848   32.2850  -46.7015 C   0  0  0  0  0  0
  -28.4914   33.3740  -46.3796 C   0  0  0  0  0  0
  -28.2268   34.1109  -45.2276 C   0  0  0  0  0  0
  -25.3972   32.1978  -40.4670 N   0  0  0  0  0  0
  -24.0266   32.5963  -40.1377 C   0  0  0  0  0  0
  -22.9304   32.2347  -41.1412 C   0  0  0  0  0  0
  -21.6065   32.5149  -40.7923 C   0  0  0  0  0  0
  -20.5714   32.2276  -41.6782 C   0  0  0  0  0  0
  -20.8620   31.6658  -42.9196 C   0  0  0  0  0  0
  -22.1772   31.3858  -43.2810 C   0  0  0  0  0  0
  -23.2095   31.6630  -42.3884 C   0  0  0  0  0  0
  -30.7285   23.6464  -37.1809 H   0  0  0  0  0  0
  -29.5694   25.4838  -36.3618 H   0  0  0  0  0  0
  -28.3348   27.0841  -37.5810 H   0  0  0  0  0  0
  -29.8130   28.1253  -40.0442 H   0  0  0  0  0  0
  -26.6013   28.3859  -38.0630 H   0  0  0  0  0  0
  -24.8694   30.0919  -38.4811 H   0  0  0  0  0  0
  -29.2320   30.1915  -40.9438 H   0  0  0  0  0  0
  -25.7110   34.9026  -41.3787 H   0  0  0  0  0  0
  -24.8996   33.9961  -42.5986 H   0  0  0  0  0  0
  -27.8529   34.7917  -42.6400 H   0  0  0  0  0  0
  -26.5768   35.5993  -43.5001 H   0  0  0  0  0  0
  -25.5126   32.3886  -44.1200 H   0  0  0  0  0  0
  -25.9935   31.0838  -46.1378 H   0  0  0  0  0  0
  -27.8940   31.7089  -47.5917 H   0  0  0  0  0  0
  -29.3207   33.6438  -47.0190 H   0  0  0  0  0  0
  -28.8551   34.9559  -44.9848 H   0  0  0  0  0  0
  -24.0182   33.6760  -39.9814 H   0  0  0  0  0  0
  -23.7676   32.1451  -39.1812 H   0  0  0  0  0  0
  -21.3816   32.9590  -39.8315 H   0  0  0  0  0  0
  -19.5491   32.4451  -41.4049 H   0  0  0  0  0  0
  -20.0610   31.4429  -43.6098 H   0  0  0  0  0  0
  -22.3898   30.9478  -44.2458 H   0  0  0  0  0  0
  -24.2214   31.4179  -42.6704 H   0  0  0  0  0  0
  1  2  1  0  0  0
  1 31  1  0  0  0
  2  3  1  0  0  0
  2 32  1  0  0  0
  3  4  2  0  0  0
  3  5  1  0  0  0
  5  6  2  0  0  0
  5 33  1  0  0  0
  6  7  1  0  0  0
  6 34  1  0  0  0
  7  8  2  0  0  0
  7 12  1  0  0  0
  8  9  1  0  0  0
  8 35  1  0  0  0
  9 10  2  0  0  0
  9 36  1  0  0  0
 10 11  1  0  0  0
 10 23  1  0  0  0
 11 12  2  0  0  0
 11 13  1  0  0  0
 12 37  1  0  0  0
 13 14  2  0  0  0
 14 15  1  0  0  0
 14 23  1  0  0  0
 15 16  1  0  0  0
 15 38  1  0  0  0
 15 39  1  0  0  0
 16 17  1  0  0  0
 16 40  1  0  0  0
 16 41  1  0  0  0
 17 18  2  0  0  0
 17 22  1  0  0  0
 18 19  1  0  0  0
 18 42  1  0  0  0
 19 20  2  0  0  0
 19 43  1  0  0  0
 20 21  1  0  0  0
 20 44  1  0  0  0
 21 22  2  0  0  0
 21 45  1  0  0  0
 22 46  1  0  0  0
 23 24  1  0  0  0
 24 25  1  0  0  0
 24 47  1  0  0  0
 24 48  1  0  0  0
 25 26  2  0  0  0
 25 30  1  0  0  0
 26 27  1  0  0  0
 26 49  1  0  0  0
 27 28  2  0  0  0
 27 50  1  0  0  0
 28 29  1  0  0  0
 28 51  1  0  0  0
 29 30  2  0  0  0
 29 52  1  0  0  0
 30 53  1  0  0  0
M  END
> <s_m_entry_id>
52869

> <s_m_entry_name>
dock_pv.88

> <s_m_Source_Path>
/home/csk/Desktop/cluster/DUD-E-result/hdac8

> <s_m_Source_File>
dock_pv.maegz

> <i_m_Source_File_Index>
88

> <chembl_id>
CHEMBL491687

> <chembl_pref_name>
None

> <i_lp_mmshare_version>
53161

> <i_f3d_flags>
0

> <r_lp_tautomer_probability>
1

> <s_lp_Force_Field>
OPLS_2005

> <r_lp_Energy>
29.238735

> <b_lp_Chiralities_Consistent>
1

> <s_lp_Variant>
CHEMBL3192_lig858-1

> <s_i_glide_gridfile>
glide-grid_3f07

> <i_i_glide_lignum>
916

> <i_i_glide_rotatable_bonds>
9

> <r_i_docking_score>
-8.02732993414709

> <r_i_glide_ligand_efficiency>
-0.26757766447157

> <r_i_glide_ligand_efficiency_sa>
-0.831426015970661

> <r_i_glide_ligand_efficiency_ln>
-1.82389682580323

> <r_i_glide_gscore>
-8.02732993414709

> <r_i_glide_lipo>
-1.3678957176669

> <r_i_glide_hbond>
-0.237972565806116

> <r_i_glide_metal>
-2.3

> <r_i_glide_rewards>
-0.947847496057352

> <r_i_glide_evdw>
-38.114444732666

> <r_i_glide_ecoul>
-13.8438091278076

> <r_i_glide_erotb>
0.99125809556447

> <r_i_glide_esite>
-0.182578644376742

> <r_i_glide_emodel>
-81.432057722484

> <r_i_glide_energy>
-51.9582538604736

> <r_i_glide_einternal>
3.83834862709045

> <i_i_glide_confnum>
20

> <i_i_glide_posenum>
118

> <r_i_glide_eff_state_penalty>
0

> <s_user_duplicate_titles>
CHEMBL3192_lig858

> <s_m_subgroup_title>
dock_pv

> <s_m_subgroupid>
dock_pv

> <b_m_subgroup_collapsed>
1

$$$$
CHEMBL3192_lig239
                    3D
 Schrodinger Suite 2021-1.
 53 56  0  0  1  0            999 V2000
  -20.8707   32.5033  -39.7654 C   0  0  0  0  0  0
  -20.4269   31.7402  -38.6901 C   0  0  0  0  0  0
  -19.4954   30.7247  -38.8999 C   0  0  0  0  0  0
  -19.0139   30.4577  -40.1797 C   0  0  0  0  0  0
  -19.4626   31.2159  -41.2586 C   0  0  0  0  0  0
  -20.3880   32.2441  -41.0514 C   0  0  0  0  0  0
  -24.0320   31.1893  -43.4113 N   0  0  0  0  0  0
  -25.3301   31.5984  -47.2999 C   0  0  0  0  0  0
  -23.9625   31.7973  -47.1006 C   0  0  0  0  0  0
  -23.3754   31.6872  -45.8368 C   0  0  0  0  0  0
  -26.1741   31.2688  -46.2384 C   0  0  0  0  0  0
  -26.2145   30.8253  -43.7824 N   0  0  0  0  0  0
  -25.6097   31.1478  -44.9603 C   0  0  0  0  0  0
  -24.2288   31.3695  -44.7709 C   0  0  0  0  0  0
  -25.2782   30.8819  -42.8621 C   0  0  0  0  0  0
  -25.6069   30.5858  -41.4169 C   0  0  0  0  0  0
  -24.9401   31.1786  -40.3359 C   0  0  0  0  0  0
  -25.2963   30.8692  -39.0242 C   0  0  0  0  0  0
  -26.3391   29.9818  -38.7703 C   0  0  0  0  0  0
  -27.0449   29.3950  -39.8225 C   0  0  0  0  0  0
  -26.6688   29.7114  -41.1327 C   0  0  0  0  0  0
  -28.1674   28.4625  -39.5942 C   0  0  0  0  0  0
  -28.3625   27.6746  -38.5121 C   0  0  0  0  0  0
  -29.5205   26.8166  -38.3845 C   0  0  0  0  0  0
  -29.8130   26.4690  -37.1215 N   0  0  0  0  0  0
  -30.2132   26.4690  -39.3515 O   0  0  0  0  0  0
  -30.9518   25.6809  -36.8798 O   0  0  0  0  0  0
  -22.7420   31.3618  -42.7471 C   0  0  0  0  0  0
  -22.3620   32.8511  -42.5977 C   0  0  0  0  0  0
  -20.8782   33.0737  -42.2335 C   0  0  0  0  0  0
  -21.5883   33.2936  -39.5906 H   0  0  0  0  0  0
  -20.8008   31.9445  -37.6956 H   0  0  0  0  0  0
  -19.1505   30.1351  -38.0628 H   0  0  0  0  0  0
  -18.2958   29.6648  -40.3348 H   0  0  0  0  0  0
  -19.0883   31.0042  -42.2515 H   0  0  0  0  0  0
  -25.7416   31.6996  -48.2946 H   0  0  0  0  0  0
  -23.3405   32.0452  -47.9491 H   0  0  0  0  0  0
  -22.3158   31.8458  -45.6958 H   0  0  0  0  0  0
  -27.2305   31.1124  -46.3948 H   0  0  0  0  0  0
  -24.1575   31.9035  -40.4899 H   0  0  0  0  0  0
  -24.7744   31.3369  -38.2020 H   0  0  0  0  0  0
  -26.6138   29.7776  -37.7459 H   0  0  0  0  0  0
  -27.2109   29.2692  -41.9530 H   0  0  0  0  0  0
  -28.9059   28.4580  -40.3810 H   0  0  0  0  0  0
  -27.6578   27.6695  -37.6932 H   0  0  0  0  0  0
  -29.3184   26.7510  -36.2812 H   0  0  0  0  0  0
  -31.5543   26.2812  -36.4305 H   0  0  0  0  0  0
  -22.7450   30.8691  -41.7790 H   0  0  0  0  0  0
  -21.9951   30.8356  -43.3414 H   0  0  0  0  0  0
  -22.5672   33.3912  -43.5239 H   0  0  0  0  0  0
  -22.9958   33.3140  -41.8411 H   0  0  0  0  0  0
  -20.2559   32.8652  -43.1057 H   0  0  0  0  0  0
  -20.7080   34.1279  -42.0079 H   0  0  0  0  0  0
  1  6  1  0  0  0
  1  2  2  0  0  0
  1 31  1  0  0  0
  2  3  1  0  0  0
  2 32  1  0  0  0
  3  4  2  0  0  0
  3 33  1  0  0  0
  4  5  1  0  0  0
  4 34  1  0  0  0
  5  6  2  0  0  0
  5 35  1  0  0  0
  6 30  1  0  0  0
  7 15  1  0  0  0
  7 28  1  0  0  0
  7 14  1  0  0  0
  8  9  2  0  0  0
  8 11  1  0  0  0
  8 36  1  0  0  0
  9 10  1  0  0  0
  9 37  1  0  0  0
 10 14  2  0  0  0
 10 38  1  0  0  0
 11 13  2  0  0  0
 11 39  1  0  0  0
 12 15  2  0  0  0
 12 13  1  0  0  0
 13 14  1  0  0  0
 15 16  1  0  0  0
 16 17  2  0  0  0
 16 21  1  0  0  0
 17 18  1  0  0  0
 17 40  1  0  0  0
 18 19  2  0  0  0
 18 41  1  0  0  0
 19 20  1  0  0  0
 19 42  1  0  0  0
 20 21  2  0  0  0
 20 22  1  0  0  0
 21 43  1  0  0  0
 22 23  2  0  0  0
 22 44  1  0  0  0
 23 24  1  0  0  0
 23 45  1  0  0  0
 24 25  1  0  0  0
 24 26  2  0  0  0
 25 27  1  0  0  0
 25 46  1  0  0  0
 27 47  1  0  0  0
 28 29  1  0  0  0
 28 48  1  0  0  0
 28 49  1  0  0  0
 29 30  1  0  0  0
 29 50  1  0  0  0
 29 51  1  0  0  0
 30 52  1  0  0  0
 30 53  1  0  0  0
M  END
> <s_m_entry_id>
52870

> <s_m_entry_name>
dock_pv.89

> <s_m_Source_Path>
/home/csk/Desktop/cluster/DUD-E-result/hdac8

> <s_m_Source_File>
dock_pv.maegz

> <i_m_Source_File_Index>
89

> <chembl_id>
CHEMBL1097761

> <chembl_pref_name>
None

> <i_lp_mmshare_version>
53161

> <i_f3d_flags>
0

> <r_lp_tautomer_probability>
1

> <s_lp_Force_Field>
OPLS_2005

> <r_lp_Energy>
31.73519

> <b_lp_Chiralities_Consistent>
1

> <s_lp_Variant>
CHEMBL3192_lig239-1

> <s_i_glide_gridfile>
glide-grid_3f07

> <i_i_glide_lignum>
249

> <i_i_glide_rotatable_bonds>
9

> <r_i_docking_score>
-8.02566476781082

> <r_i_glide_ligand_efficiency>
-0.267522158927027

> <r_i_glide_ligand_efficiency_sa>
-0.831253547338594

> <r_i_glide_ligand_efficiency_ln>
-1.82351848186819

> <r_i_glide_gscore>
-8.02566476781082

> <r_i_glide_lipo>
-1.37218591440032

> <r_i_glide_hbond>
-0.592206227584844

> <r_i_glide_metal>
-2.3

> <r_i_glide_rewards>
-0.871834739800924

> <r_i_glide_evdw>
-33.9315986633301

> <r_i_glide_ecoul>
-12.6750144958496

> <r_i_glide_erotb>
0.867350833618911

> <r_i_glide_esite>
-0.158956612099697

> <r_i_glide_emodel>
-73.0031434166854

> <r_i_glide_energy>
-46.6066131591797

> <r_i_glide_einternal>
4.40916585922241

> <i_i_glide_confnum>
21

> <i_i_glide_posenum>
257

> <r_i_glide_eff_state_penalty>
0

> <s_user_duplicate_titles>
CHEMBL3192_lig239,625393

> <s_m_subgroup_title>
dock_pv

> <s_m_subgroupid>
dock_pv

> <b_m_subgroup_collapsed>
1

$$$$
CHEMBL3192_lig288
                    3D
 Schrodinger Suite 2021-1.
 42 44  0  0  1  0            999 V2000
  -30.6136   24.8688  -38.7808 O   0  0  0  0  0  0
  -29.5230   25.6395  -38.3665 N   0  0  0  0  0  0
  -29.4133   26.8698  -38.8597 C   0  0  0  0  0  0
  -30.2127   27.2688  -39.7039 O   0  0  0  0  0  0
  -28.2766   27.7721  -38.3813 C   0  0  0  0  0  0
  -27.2529   28.1184  -39.4708 C   0  0  0  0  0  0
  -27.6523   29.2506  -40.4329 C   0  0  0  0  0  0
  -26.4487   29.6721  -41.2880 C   0  0  0  0  0  0
  -26.7372   30.8182  -42.2796 C   0  0  0  0  0  0
  -25.5609   31.7166  -42.4348 N   0  0  0  0  0  0
  -24.5818   31.2710  -43.2964 C   0  0  0  0  0  0
  -24.7004   30.2532  -43.9901 O   0  0  0  0  0  0
  -23.3208   32.1111  -43.3047 C   0  0  0  0  0  0
  -22.2524   31.7384  -44.1287 C   0  0  0  0  0  0
  -21.0659   32.4693  -44.1354 C   0  0  0  0  0  0
  -20.9073   33.5882  -43.3200 C   0  0  0  0  0  0
  -21.9590   33.9995  -42.4670 C   0  0  0  0  0  0
  -21.8589   35.1112  -41.5969 C   0  0  0  0  0  0
  -22.9261   35.4470  -40.7649 C   0  0  0  0  0  0
  -24.1084   34.7093  -40.7823 C   0  0  0  0  0  0
  -24.2594   33.6135  -41.6412 C   0  0  0  0  0  0
  -25.5627   32.8405  -41.6377 C   0  0  0  0  0  0
  -26.5376   33.1898  -40.9614 O   0  0  0  0  0  0
  -23.1696   33.2528  -42.4756 C   0  0  0  0  0  0
  -30.8861   24.4048  -37.9778 H   0  0  0  0  0  0
  -28.8015   25.1044  -37.8921 H   0  0  0  0  0  0
  -28.6969   28.6754  -37.9397 H   0  0  0  0  0  0
  -27.7406   27.2690  -37.5810 H   0  0  0  0  0  0
  -26.3362   28.4272  -38.9647 H   0  0  0  0  0  0
  -27.0130   27.2179  -40.0384 H   0  0  0  0  0  0
  -28.4838   28.9468  -41.0672 H   0  0  0  0  0  0
  -28.0026   30.1114  -39.8606 H   0  0  0  0  0  0
  -25.6432   29.9657  -40.6116 H   0  0  0  0  0  0
  -26.0573   28.8178  -41.8401 H   0  0  0  0  0  0
  -27.0484   30.4153  -43.2444 H   0  0  0  0  0  0
  -27.6090   31.3751  -41.9372 H   0  0  0  0  0  0
  -22.3221   30.8702  -44.7705 H   0  0  0  0  0  0
  -20.2557   32.1540  -44.7777 H   0  0  0  0  0  0
  -19.9783   34.1412  -43.3288 H   0  0  0  0  0  0
  -20.9446   35.6858  -41.5660 H   0  0  0  0  0  0
  -22.8331   36.2791  -40.0828 H   0  0  0  0  0  0
  -24.9013   34.9888  -40.1009 H   0  0  0  0  0  0
  1  2  1  0  0  0
  1 25  1  0  0  0
  2  3  1  0  0  0
  2 26  1  0  0  0
  3  4  2  0  0  0
  3  5  1  0  0  0
  5  6  1  0  0  0
  5 27  1  0  0  0
  5 28  1  0  0  0
  6  7  1  0  0  0
  6 29  1  0  0  0
  6 30  1  0  0  0
  7  8  1  0  0  0
  7 31  1  0  0  0
  7 32  1  0  0  0
  8  9  1  0  0  0
  8 33  1  0  0  0
  8 34  1  0  0  0
  9 10  1  0  0  0
  9 35  1  0  0  0
  9 36  1  0  0  0
 10 11  1  0  0  0
 10 22  1  0  0  0
 11 12  2  0  0  0
 11 13  1  0  0  0
 13 14  2  0  0  0
 13 24  1  0  0  0
 14 15  1  0  0  0
 14 37  1  0  0  0
 15 16  2  0  0  0
 15 38  1  0  0  0
 16 17  1  0  0  0
 16 39  1  0  0  0
 17 18  2  0  0  0
 17 24  1  0  0  0
 18 19  1  0  0  0
 18 40  1  0  0  0
 19 20  2  0  0  0
 19 41  1  0  0  0
 20 21  1  0  0  0
 20 42  1  0  0  0
 21 22  1  0  0  0
 21 24  2  0  0  0
 22 23  2  0  0  0
M  END
> <s_m_entry_id>
52871

> <s_m_entry_name>
dock_pv.90

> <s_m_Source_Path>
/home/csk/Desktop/cluster/DUD-E-result/hdac8

> <s_m_Source_File>
dock_pv.maegz

> <i_m_Source_File_Index>
90

> <chembl_id>
CHEMBL96051

> <chembl_pref_name>
SCRIPTAID

> <i_lp_mmshare_version>
53161

> <i_f3d_flags>
0

> <r_lp_tautomer_probability>
1

> <s_lp_Force_Field>
OPLS_2005

> <r_lp_Energy>
40.243819

> <b_lp_Chiralities_Consistent>
1

> <s_lp_Variant>
CHEMBL3192_lig288-1

> <s_i_glide_gridfile>
glide-grid_3f07

> <i_i_glide_lignum>
301

> <i_i_glide_rotatable_bonds>
8

> <r_i_docking_score>
-8.02417263637633

> <r_i_glide_ligand_efficiency>
-0.334340526515681

> <r_i_glide_ligand_efficiency_sa>
-0.964404960385542

> <r_i_glide_ligand_efficiency_ln>
-1.92055271717456

> <r_i_glide_gscore>
-8.02417263637633

> <r_i_glide_lipo>
-0.777217585766861

> <r_i_glide_hbond>
-0.462812103323089

> <r_i_glide_metal>
-2.3

> <r_i_glide_rewards>
-1.2505689493185

> <r_i_glide_evdw>
-12.7280683517456

> <r_i_glide_ecoul>
-22.8925075531006

> <r_i_glide_erotb>
1.05651490015059

> <r_i_glide_esite>
-0.219809347566102

> <r_i_glide_emodel>
-52.9248117550585

> <r_i_glide_energy>
-35.6205759048462

> <r_i_glide_einternal>
8.63510704040527

> <i_i_glide_confnum>
2

> <i_i_glide_posenum>
186

> <r_i_glide_eff_state_penalty>
0

> <s_user_duplicate_titles>
CHEMBL3192_lig288,158844

> <s_m_subgroup_title>
dock_pv

> <s_m_subgroupid>
dock_pv

> <b_m_subgroup_collapsed>
1

$$$$
CHEMBL3192_lig945
                    3D
 Schrodinger Suite 2021-1.
 53 55  0  0  1  0            999 V2000
  -28.3795   33.2688  -47.0219 C   0  0  0  0  0  0
  -27.8275   33.7713  -48.1945 C   0  0  0  0  0  0
  -26.5100   33.4803  -48.5382 C   0  0  0  0  0  0
  -27.6278   32.4629  -46.1700 C   0  0  0  0  0  0
  -26.2734   32.1508  -46.4820 C   0  0  0  0  0  0
  -25.7157   32.6675  -47.6945 C   0  0  0  0  0  0
  -24.4356   32.3959  -48.0723 N   0  0  0  0  0  0
  -23.7133   31.6061  -47.2441 C   0  0  0  0  0  0
  -24.1304   31.0492  -46.0864 N   0  0  0  0  0  0
  -25.4028   31.3282  -45.6909 C   0  0  0  0  0  0
  -25.8241   30.7551  -44.4625 N   0  0  0  0  0  0
  -26.2682   31.4664  -43.3117 C   0  0  0  0  0  0
  -25.4384   29.3495  -44.2716 C   0  0  0  0  0  0
  -26.8443   30.8199  -42.2041 C   0  0  0  0  0  0
  -27.3188   31.5323  -41.0899 C   0  0  0  0  0  0
  -27.2239   32.9318  -41.0754 C   0  0  0  0  0  0
  -26.6220   33.5847  -42.1610 C   0  0  0  0  0  0
  -26.1526   32.8620  -43.2545 C   0  0  0  0  0  0
  -27.9386   30.9187  -40.0156 O   0  0  0  0  0  0
  -27.4914   29.6357  -39.5680 C   0  0  0  0  0  0
  -28.7242   28.7557  -39.3117 C   0  0  0  0  0  0
  -28.3689   27.3407  -38.7977 C   0  0  0  0  0  0
  -29.6035   26.5504  -38.3394 C   0  0  0  0  0  0
  -29.8137   26.4625  -37.0181 N   0  0  0  0  0  0
  -30.3639   26.0692  -39.1810 O   0  0  0  0  0  0
  -30.9229   25.7326  -36.5614 O   0  0  0  0  0  0
  -27.7450   33.6009  -39.9811 O   0  0  0  0  0  0
  -27.4038   34.9695  -39.7740 C   0  0  0  0  0  0
  -22.2804   31.3221  -47.6464 C   0  0  0  0  0  0
  -29.4085   33.4965  -46.7802 H   0  0  0  0  0  0
  -28.4300   34.3880  -48.8456 H   0  0  0  0  0  0
  -26.0863   33.8702  -49.4526 H   0  0  0  0  0  0
  -28.0822   32.0658  -45.2739 H   0  0  0  0  0  0
  -25.0905   28.8700  -45.1804 H   0  0  0  0  0  0
  -24.6116   29.2911  -43.5812 H   0  0  0  0  0  0
  -26.2553   28.7353  -43.9102 H   0  0  0  0  0  0
  -26.9829   29.7543  -42.2276 H   0  0  0  0  0  0
  -26.5189   34.6590  -42.1806 H   0  0  0  0  0  0
  -25.6995   33.4118  -44.0660 H   0  0  0  0  0  0
  -26.9458   29.7880  -38.6353 H   0  0  0  0  0  0
  -26.7951   29.1273  -40.2339 H   0  0  0  0  0  0
  -29.2991   28.6843  -40.2355 H   0  0  0  0  0  0
  -29.3613   29.2718  -38.5911 H   0  0  0  0  0  0
  -27.6583   27.4145  -37.9736 H   0  0  0  0  0  0
  -27.8588   26.7720  -39.5779 H   0  0  0  0  0  0
  -29.2412   26.8520  -36.2728 H   0  0  0  0  0  0
  -30.5358   24.9299  -36.1996 H   0  0  0  0  0  0
  -27.7693   35.2910  -38.7987 H   0  0  0  0  0  0
  -26.3231   35.1210  -39.7814 H   0  0  0  0  0  0
  -27.8602   35.6127  -40.5272 H   0  0  0  0  0  0
  -21.9412   31.9869  -48.4417 H   0  0  0  0  0  0
  -21.6148   31.4647  -46.7944 H   0  0  0  0  0  0
  -22.1777   30.2934  -47.9858 H   0  0  0  0  0  0
  1  2  2  0  0  0
  1  4  1  0  0  0
  1 30  1  0  0  0
  2  3  1  0  0  0
  2 31  1  0  0  0
  3  6  2  0  0  0
  3 32  1  0  0  0
  4  5  2  0  0  0
  4 33  1  0  0  0
  5  6  1  0  0  0
  5 10  1  0  0  0
  6  7  1  0  0  0
  7  8  2  0  0  0
  8  9  1  0  0  0
  8 29  1  0  0  0
  9 10  2  0  0  0
 10 11  1  0  0  0
 11 12  1  0  0  0
 11 13  1  0  0  0
 12 14  2  0  0  0
 12 18  1  0  0  0
 13 34  1  0  0  0
 13 35  1  0  0  0
 13 36  1  0  0  0
 14 15  1  0  0  0
 14 37  1  0  0  0
 15 16  2  0  0  0
 15 19  1  0  0  0
 16 17  1  0  0  0
 16 27  1  0  0  0
 17 18  2  0  0  0
 17 38  1  0  0  0
 18 39  1  0  0  0
 19 20  1  0  0  0
 20 21  1  0  0  0
 20 40  1  0  0  0
 20 41  1  0  0  0
 21 22  1  0  0  0
 21 42  1  0  0  0
 21 43  1  0  0  0
 22 23  1  0  0  0
 22 44  1  0  0  0
 22 45  1  0  0  0
 23 24  1  0  0  0
 23 25  2  0  0  0
 24 26  1  0  0  0
 24 46  1  0  0  0
 26 47  1  0  0  0
 27 28  1  0  0  0
 28 48  1  0  0  0
 28 49  1  0  0  0
 28 50  1  0  0  0
 29 51  1  0  0  0
 29 52  1  0  0  0
 29 53  1  0  0  0
M  END
> <s_m_entry_id>
52872

> <s_m_entry_name>
dock_pv.91

> <s_m_Source_Path>
/home/csk/Desktop/cluster/DUD-E-result/hdac8

> <s_m_Source_File>
dock_pv.maegz

> <i_m_Source_File_Index>
91

> <chembl_id>
CHEMBL3774414

> <chembl_pref_name>
None

> <i_lp_mmshare_version>
53161

> <i_f3d_flags>
0

> <r_lp_tautomer_probability>
1

> <s_lp_Force_Field>
OPLS_2005

> <r_lp_Energy>
39.116174

> <b_lp_Chiralities_Consistent>
1

> <s_lp_Variant>
CHEMBL3192_lig945-1

> <s_i_glide_gridfile>
glide-grid_3f07

> <i_i_glide_lignum>
1006

> <i_i_glide_rotatable_bonds>
10

> <r_i_docking_score>
-8.02342958251031

> <r_i_glide_ligand_efficiency>
-0.276669985603804

> <r_i_glide_ligand_efficiency_sa>
-0.85001785097874

> <r_i_glide_ligand_efficiency_ln>
-1.83716191777537

> <r_i_glide_gscore>
-8.02342958251031

> <r_i_glide_lipo>
-1.35930881057557

> <r_i_glide_hbond>
-0.571280316876131

> <r_i_glide_metal>
-2.3

> <r_i_glide_rewards>
-0.692645634726087

> <r_i_glide_evdw>
-34.1805801391602

> <r_i_glide_ecoul>
-14.9325752258301

> <r_i_glide_erotb>
0.995892603445525

> <r_i_glide_esite>
-0.147172132945525

> <r_i_glide_emodel>
-76.0936697627084

> <r_i_glide_energy>
-49.1131553649902

> <r_i_glide_einternal>
5.34423828125

> <i_i_glide_confnum>
72

> <i_i_glide_posenum>
244

> <r_i_glide_eff_state_penalty>
0

> <s_user_duplicate_titles>
CHEMBL3192_lig945

> <s_m_subgroup_title>
dock_pv

> <s_m_subgroupid>
dock_pv

> <b_m_subgroup_collapsed>
1

$$$$
CHEMBL3192_lig231
                    3D
 Schrodinger Suite 2021-1.
 53 56  0  0  1  0            999 V2000
  -24.1511   31.6631  -46.5449 C   0  0  0  0  0  0
  -23.3865   32.7124  -46.0376 C   0  0  0  0  0  0
  -23.3797   33.0305  -44.6773 C   0  0  0  0  0  0
  -24.9328   30.8704  -45.7048 C   0  0  0  0  0  0
  -25.5727   30.4990  -43.3242 N   0  0  0  0  0  0
  -24.9261   31.1497  -44.3325 C   0  0  0  0  0  0
  -24.1725   32.2363  -43.8358 C   0  0  0  0  0  0
  -24.4508   32.2598  -42.4779 N   0  0  0  0  0  0
  -25.2480   31.1378  -42.2211 C   0  0  0  0  0  0
  -25.7375   30.6393  -40.8830 C   0  0  0  0  0  0
  -25.0126   30.8509  -39.7039 C   0  0  0  0  0  0
  -25.4954   30.4097  -38.4803 C   0  0  0  0  0  0
  -26.6581   29.6476  -38.4279 C   0  0  0  0  0  0
  -27.3504   29.3138  -39.5917 C   0  0  0  0  0  0
  -26.9031   29.8518  -40.8063 C   0  0  0  0  0  0
  -28.4881   28.3670  -39.5574 C   0  0  0  0  0  0
  -28.6832   27.4027  -38.6221 C   0  0  0  0  0  0
  -29.8130   26.5000  -38.6393 C   0  0  0  0  0  0
  -29.9409   25.7332  -37.5467 N   0  0  0  0  0  0
  -30.6130   26.4690  -39.5810 O   0  0  0  0  0  0
  -30.9865   24.7953  -37.5074 O   0  0  0  0  0  0
  -23.9603   33.2993  -41.5575 C   0  0  0  0  0  0
  -24.4117   34.7346  -41.9331 C   0  0  0  0  0  0
  -25.8295   35.0572  -41.7374 N   0  0  0  0  0  0
  -26.3360   34.8130  -40.3810 C   0  0  0  0  0  0
  -27.7452   35.4176  -40.2277 C   0  0  0  0  0  0
  -28.6130   34.8690  -41.2206 O   0  0  0  0  0  0
  -28.1603   35.1264  -42.5503 C   0  0  0  0  0  0
  -26.7439   34.5461  -42.7637 C   0  0  0  0  0  0
  -24.1355   31.4637  -47.6068 H   0  0  0  0  0  0
  -22.7881   33.3008  -46.7187 H   0  0  0  0  0  0
  -22.7829   33.8494  -44.3050 H   0  0  0  0  0  0
  -25.5318   30.0690  -46.1017 H   0  0  0  0  0  0
  -24.0474   31.3290  -39.7026 H   0  0  0  0  0  0
  -24.9350   30.6254  -37.5828 H   0  0  0  0  0  0
  -27.0130   29.2822  -37.4808 H   0  0  0  0  0  0
  -27.4471   29.6260  -41.7118 H   0  0  0  0  0  0
  -29.2062   28.4929  -40.3559 H   0  0  0  0  0  0
  -27.9800   27.2690  -37.8125 H   0  0  0  0  0  0
  -29.3467   25.7085  -36.7293 H   0  0  0  0  0  0
  -30.5332   23.9440  -37.5810 H   0  0  0  0  0  0
  -24.2840   33.1249  -40.5418 H   0  0  0  0  0  0
  -22.8714   33.2424  -41.5434 H   0  0  0  0  0  0
  -23.8491   35.4333  -41.3117 H   0  0  0  0  0  0
  -24.1206   34.9927  -42.9504 H   0  0  0  0  0  0
  -26.3429   33.7472  -40.1492 H   0  0  0  0  0  0
  -25.6662   35.2690  -39.6529 H   0  0  0  0  0  0
  -27.7136   36.5066  -40.3014 H   0  0  0  0  0  0
  -28.1405   35.1857  -39.2388 H   0  0  0  0  0  0
  -28.1747   36.1989  -42.7540 H   0  0  0  0  0  0
  -28.8570   34.6683  -43.2524 H   0  0  0  0  0  0
  -26.3789   34.8446  -43.7474 H   0  0  0  0  0  0
  -26.7653   33.4568  -42.7633 H   0  0  0  0  0  0
  1  2  2  0  0  0
  1  4  1  0  0  0
  1 30  1  0  0  0
  2  3  1  0  0  0
  2 31  1  0  0  0
  3  7  2  0  0  0
  3 32  1  0  0  0
  4  6  2  0  0  0
  4 33  1  0  0  0
  5  6  1  0  0  0
  5  9  2  0  0  0
  6  7  1  0  0  0
  7  8  1  0  0  0
  8  9  1  0  0  0
  8 22  1  0  0  0
  9 10  1  0  0  0
 10 15  1  0  0  0
 10 11  2  0  0  0
 11 12  1  0  0  0
 11 34  1  0  0  0
 12 13  2  0  0  0
 12 35  1  0  0  0
 13 14  1  0  0  0
 13 36  1  0  0  0
 14 15  2  0  0  0
 14 16  1  0  0  0
 15 37  1  0  0  0
 16 17  2  0  0  0
 16 38  1  0  0  0
 17 18  1  0  0  0
 17 39  1  0  0  0
 18 19  1  0  0  0
 18 20  2  0  0  0
 19 21  1  0  0  0
 19 40  1  0  0  0
 21 41  1  0  0  0
 22 23  1  0  0  0
 22 42  1  0  0  0
 22 43  1  0  0  0
 23 24  1  0  0  0
 23 44  1  0  0  0
 23 45  1  0  0  0
 24 25  1  0  0  0
 24 29  1  0  0  0
 25 26  1  0  0  0
 25 46  1  0  0  0
 25 47  1  0  0  0
 26 27  1  0  0  0
 26 48  1  0  0  0
 26 49  1  0  0  0
 27 28  1  0  0  0
 28 29  1  0  0  0
 28 50  1  0  0  0
 28 51  1  0  0  0
 29 52  1  0  0  0
 29 53  1  0  0  0
M  END
> <s_m_entry_id>
52873

> <s_m_entry_name>
dock_pv.92

> <s_m_Source_Path>
/home/csk/Desktop/cluster/DUD-E-result/hdac8

> <s_m_Source_File>
dock_pv.maegz

> <i_m_Source_File_Index>
92

> <chembl_id>
CHEMBL1095075

> <chembl_pref_name>
None

> <i_lp_mmshare_version>
53161

> <i_f3d_flags>
0

> <r_lp_tautomer_probability>
1

> <s_lp_Force_Field>
OPLS_2005

> <r_lp_Energy>
46.973208

> <b_lp_Chiralities_Consistent>
1

> <s_lp_Variant>
CHEMBL3192_lig231-1

> <s_i_glide_gridfile>
glide-grid_3f07

> <i_i_glide_lignum>
241

> <i_i_glide_rotatable_bonds>
8

> <r_i_docking_score>
-8.02269301754573

> <r_i_glide_ligand_efficiency>
-0.276644586811922

> <r_i_glide_ligand_efficiency_sa>
-0.849939817843177

> <r_i_glide_ligand_efficiency_ln>
-1.83699326307615

> <r_i_glide_gscore>
-8.02269301754573

> <r_i_glide_lipo>
-1.26886369396739

> <r_i_glide_hbond>
-0.311179879141469

> <r_i_glide_metal>
-2.3

> <r_i_glide_rewards>
-0.899844888372231

> <r_i_glide_evdw>
-28.4855918884277

> <r_i_glide_ecoul>
-17.042610168457

> <r_i_glide_erotb>
0.887392472070279

> <r_i_glide_esite>
-0.149525908444979

> <r_i_glide_emodel>
-72.837523028268

> <r_i_glide_energy>
-45.5282020568848

> <r_i_glide_einternal>
5.54234790802002

> <i_i_glide_confnum>
10

> <i_i_glide_posenum>
86

> <r_i_glide_eff_state_penalty>
0

> <s_user_duplicate_titles>
CHEMBL3192_lig231,626571

> <s_m_subgroup_title>
dock_pv

> <s_m_subgroupid>
dock_pv

> <b_m_subgroup_collapsed>
1

$$$$
CHEMBL3192_lig345
                    3D
 Schrodinger Suite 2021-1.
 59 61  0  0  1  0            999 V2000
  -25.3278   31.6031  -43.2508 C   0  0  0  0  0  0
  -24.3937   31.1885  -42.3168 N   0  0  0  0  0  0
  -25.8878   32.7004  -43.2929 O   0  0  0  0  0  0
  -25.5752   30.5786  -44.0872 O   0  0  0  0  0  0
  -22.8239   31.4544  -40.4149 C   0  0  0  0  0  0
  -24.1122   31.9857  -41.1115 C   0  0  2  0  0  0
  -25.3594   32.1815  -40.1787 C   0  0  0  0  0  0
  -22.8445   31.2690  -39.0768 N   0  0  0  0  0  0
  -21.8153   30.8696  -38.2009 C   0  0  0  0  0  0
  -22.2152   30.4691  -36.9209 C   0  0  0  0  0  0
  -21.2700   30.0704  -35.9801 C   0  0  0  0  0  0
  -19.9200   30.0696  -36.3174 C   0  0  0  0  0  0
  -19.5063   30.4695  -37.5856 C   0  0  0  0  0  0
  -20.4494   30.8742  -38.5277 C   0  0  0  0  0  0
  -21.8328   31.2709  -41.1242 O   0  0  0  0  0  0
  -26.3125   31.0026  -40.0094 C   0  0  0  0  0  0
  -27.4743   30.9115  -40.7796 C   0  0  0  0  0  0
  -28.3878   29.8869  -40.5463 C   0  0  0  0  0  0
  -28.1643   28.9619  -39.5286 C   0  0  0  0  0  0
  -26.9935   29.0560  -38.7669 C   0  0  0  0  0  0
  -26.0738   30.0689  -39.0043 C   0  0  0  0  0  0
  -29.1326   27.9988  -39.3363 O   0  0  0  0  0  0
  -29.1505   27.2780  -38.1023 C   0  0  0  0  0  0
  -30.2145   26.1797  -38.1599 C   0  0  0  0  0  0
  -30.9192   26.0691  -39.1728 O   0  0  0  0  0  0
  -30.3447   25.4140  -37.0625 N   0  0  0  0  0  0
  -31.3277   24.4136  -37.0673 O   0  0  0  0  0  0
  -26.5981   30.6649  -45.0784 C   0  0  0  0  0  0
  -26.0814   31.1067  -46.4469 C   0  0  0  0  0  0
  -24.7201   31.3101  -46.7070 C   0  0  0  0  0  0
  -24.3002   31.6727  -47.9843 C   0  0  0  0  0  0
  -25.2387   31.8255  -49.0023 C   0  0  0  0  0  0
  -26.5943   31.6283  -48.7528 C   0  0  0  0  0  0
  -27.0133   31.2732  -47.4740 C   0  0  0  0  0  0
  -24.0815   30.2311  -42.3376 H   0  0  0  0  0  0
  -23.8218   32.9888  -41.4337 H   0  0  0  0  0  0
  -25.9364   33.0351  -40.5400 H   0  0  0  0  0  0
  -25.0588   32.4691  -39.1816 H   0  0  0  0  0  0
  -23.7159   31.4814  -38.6190 H   0  0  0  0  0  0
  -23.2602   30.4682  -36.6478 H   0  0  0  0  0  0
  -21.5774   29.7682  -34.9896 H   0  0  0  0  0  0
  -19.1859   29.7626  -35.5861 H   0  0  0  0  0  0
  -18.4556   30.4735  -37.8355 H   0  0  0  0  0  0
  -20.0963   31.2002  -39.4924 H   0  0  0  0  0  0
  -27.6806   31.6424  -41.5482 H   0  0  0  0  0  0
  -29.2868   29.8229  -41.1419 H   0  0  0  0  0  0
  -26.7696   28.3552  -37.9812 H   0  0  0  0  0  0
  -25.1897   30.1266  -38.3884 H   0  0  0  0  0  0
  -29.4126   27.9567  -37.2864 H   0  0  0  0  0  0
  -28.1860   26.8150  -37.9371 H   0  0  0  0  0  0
  -29.8101   25.4509  -36.2028 H   0  0  0  0  0  0
  -30.8262   23.5995  -37.2008 H   0  0  0  0  0  0
  -27.0347   29.6710  -45.1823 H   0  0  0  0  0  0
  -27.4006   31.3345  -44.7609 H   0  0  0  0  0  0
  -23.9790   31.1859  -45.9314 H   0  0  0  0  0  0
  -23.2511   31.8362  -48.1839 H   0  0  0  0  0  0
  -24.9120   32.1060  -49.9929 H   0  0  0  0  0  0
  -27.3194   31.7507  -49.5447 H   0  0  0  0  0  0
  -28.0670   31.1212  -47.2865 H   0  0  0  0  0  0
  1  2  1  0  0  0
  1  3  2  0  0  0
  1  4  1  0  0  0
  2  6  1  0  0  0
  2 35  1  0  0  0
  4 28  1  0  0  0
  5  6  1  0  0  0
  5  8  1  0  0  0
  5 15  2  0  0  0
  6  7  1  0  0  0
  6 36  1  0  0  0
  7 16  1  0  0  0
  7 37  1  0  0  0
  7 38  1  0  0  0
  8  9  1  0  0  0
  8 39  1  0  0  0
  9 10  1  0  0  0
  9 14  2  0  0  0
 10 11  2  0  0  0
 10 40  1  0  0  0
 11 12  1  0  0  0
 11 41  1  0  0  0
 12 13  2  0  0  0
 12 42  1  0  0  0
 13 14  1  0  0  0
 13 43  1  0  0  0
 14 44  1  0  0  0
 16 17  1  0  0  0
 16 21  2  0  0  0
 17 18  2  0  0  0
 17 45  1  0  0  0
 18 19  1  0  0  0
 18 46  1  0  0  0
 19 20  2  0  0  0
 19 22  1  0  0  0
 20 21  1  0  0  0
 20 47  1  0  0  0
 21 48  1  0  0  0
 22 23  1  0  0  0
 23 24  1  0  0  0
 23 49  1  0  0  0
 23 50  1  0  0  0
 24 25  2  0  0  0
 24 26  1  0  0  0
 26 27  1  0  0  0
 26 51  1  0  0  0
 27 52  1  0  0  0
 28 29  1  0  0  0
 28 53  1  0  0  0
 28 54  1  0  0  0
 29 30  1  0  0  0
 29 34  2  0  0  0
 30 31  2  0  0  0
 30 55  1  0  0  0
 31 32  1  0  0  0
 31 56  1  0  0  0
 32 33  2  0  0  0
 32 57  1  0  0  0
 33 34  1  0  0  0
 33 58  1  0  0  0
 34 59  1  0  0  0
M  END
> <s_m_entry_id>
52874

> <s_m_entry_name>
dock_pv.93

> <s_m_Source_Path>
/home/csk/Desktop/cluster/DUD-E-result/hdac8

> <s_m_Source_File>
dock_pv.maegz

> <i_m_Source_File_Index>
93

> <chembl_id>
CHEMBL1808269

> <chembl_pref_name>
None

> <i_lp_mmshare_version>
53161

> <i_f3d_flags>
0

> <r_lp_tautomer_probability>
1

> <s_lp_Force_Field>
OPLS_2005

> <r_lp_Energy>
27.459378

> <b_lp_Chiralities_Consistent>
1

> <s_lp_Variant>
CHEMBL3192_lig345-1

> <s_i_glide_gridfile>
glide-grid_3f07

> <i_i_glide_lignum>
364

> <i_i_glide_rotatable_bonds>
15

> <r_i_docking_score>
-8.02025157490944

> <r_i_glide_ligand_efficiency>
-0.235889752203219

> <r_i_glide_ligand_efficiency_sa>
-0.764191224139698

> <r_i_glide_ligand_efficiency_ln>
-1.77189853333425

> <r_i_glide_gscore>
-8.02025157490944

> <r_i_glide_lipo>
-1.42689717636286

> <r_i_glide_hbond>
-0.43155395814776

> <r_i_glide_metal>
-2.3

> <r_i_glide_rewards>
-0.428921235467745

> <r_i_glide_evdw>
-43.9545097351074

> <r_i_glide_ecoul>
-14.5867547988892

> <r_i_glide_erotb>
1.12572822925695

> <r_i_glide_esite>
-0.172868727599275

> <r_i_glide_emodel>
-85.1493157352864

> <r_i_glide_energy>
-58.5412645339966

> <r_i_glide_einternal>
15.7878303527832

> <i_i_glide_confnum>
14

> <i_i_glide_posenum>
292

> <r_i_glide_eff_state_penalty>
0

> <s_user_duplicate_titles>
CHEMBL3192_lig345

> <s_m_subgroup_title>
dock_pv

> <s_m_subgroupid>
dock_pv

> <b_m_subgroup_collapsed>
1

$$$$
CHEMBL3192_lig720
                    3D
 Schrodinger Suite 2021-1.
 40 42  0  0  1  0            999 V2000
  -24.0087   30.8356  -40.4453 C   0  0  0  0  0  0
  -30.2130   25.3466  -37.1941 O   0  0  0  0  0  0
  -26.0570   31.4485  -47.8084 C   0  0  0  0  0  0
  -26.6130   29.5160  -38.6578 C   0  0  0  0  0  0
  -24.8975   31.5156  -45.2670 C   0  0  0  0  0  0
  -23.9697   31.2690  -41.8997 C   0  0  0  0  0  0
  -23.1252   32.1793  -43.6831 N   0  0  0  0  0  0
  -26.2639   31.7323  -39.8995 C   0  0  0  0  0  0
  -27.0495   30.4527  -39.5993 C   0  0  0  0  0  0
  -28.5851   28.1582  -39.0400 C   0  0  0  0  0  0
  -26.2741   31.2949  -45.4139 C   0  0  0  0  0  0
  -29.4255   26.9345  -38.7444 C   0  0  0  0  0  0
  -24.6890   31.6690  -47.6787 C   0  0  0  0  0  0
  -22.9093   31.9973  -42.3200 O   0  0  0  0  0  0
  -29.0130   29.1025  -39.9810 C   0  0  0  0  0  0
  -24.8409   31.6690  -39.5810 N   0  0  2  0  0  0
  -24.2704   31.5626  -43.9026 C   0  0  0  0  0  0
  -24.8261   30.9916  -42.8476 N   0  0  0  0  0  0
  -26.8532   31.2690  -46.6810 C   0  0  0  0  0  0
  -29.4132   26.4690  -37.4935 N   0  0  0  0  0  0
  -28.2572   30.2370  -40.2601 C   0  0  0  0  0  0
  -24.1110   31.7029  -46.4124 C   0  0  0  0  0  0
  -27.3758   28.3831  -38.3810 C   0  0  0  0  0  0
  -30.2130   26.4811  -39.5810 O   0  0  0  0  0  0
  -26.6130   31.4002  -49.0393 F   0  0  0  0  0  0
  -22.9977   30.8413  -40.0361 H   0  0  0  0  0  0
  -24.3415   29.8014  -40.3627 H   0  0  0  0  0  0
  -29.5880   24.6116  -37.1810 H   0  0  0  0  0  0
  -25.6806   29.6650  -38.1336 H   0  0  0  0  0  0
  -26.4171   32.0511  -40.9311 H   0  0  0  0  0  0
  -26.6796   32.5233  -39.2758 H   0  0  0  0  0  0
  -26.9027   31.1525  -44.5465 H   0  0  0  0  0  0
  -24.0793   31.8118  -48.5585 H   0  0  0  0  0  0
  -29.9436   28.9704  -40.5122 H   0  0  0  0  0  0
  -24.4440   32.5559  -39.2718 H   0  0  0  0  0  0
  -27.9139   31.0994  -46.7946 H   0  0  0  0  0  0
  -28.8802   26.8163  -36.7002 H   0  0  0  0  0  0
  -28.6130   30.9459  -40.9931 H   0  0  0  0  0  0
  -23.0471   31.8736  -46.3269 H   0  0  0  0  0  0
  -27.0130   27.6747  -37.6512 H   0  0  0  0  0  0
  1  6  1  0  0  0
  1 16  1  0  0  0
  1 26  1  0  0  0
  1 27  1  0  0  0
  2 20  1  0  0  0
  2 28  1  0  0  0
  3 19  1  0  0  0
  3 13  2  0  0  0
  3 25  1  0  0  0
  4 23  1  0  0  0
  4  9  2  0  0  0
  4 29  1  0  0  0
  5 22  2  0  0  0
  5 17  1  0  0  0
  5 11  1  0  0  0
  6 14  1  0  0  0
  6 18  2  0  0  0
  7 14  1  0  0  0
  7 17  2  0  0  0
  8  9  1  0  0  0
  8 16  1  0  0  0
  8 30  1  0  0  0
  8 31  1  0  0  0
  9 21  1  0  0  0
 10 12  1  0  0  0
 10 23  2  0  0  0
 10 15  1  0  0  0
 11 19  2  0  0  0
 11 32  1  0  0  0
 12 24  2  0  0  0
 12 20  1  0  0  0
 13 22  1  0  0  0
 13 33  1  0  0  0
 15 21  2  0  0  0
 15 34  1  0  0  0
 16 35  1  0  0  0
 17 18  1  0  0  0
 19 36  1  0  0  0
 20 37  1  0  0  0
 21 38  1  0  0  0
 22 39  1  0  0  0
 23 40  1  0  0  0
M  END
> <s_m_entry_id>
52875

> <s_m_entry_name>
dock_pv.94

> <s_m_Source_Path>
/home/csk/Desktop/cluster/DUD-E-result/hdac8

> <s_m_Source_File>
dock_pv.maegz

> <i_m_Source_File_Index>
94

> <chembl_id>
CHEMBL3421753

> <chembl_pref_name>
None

> <i_lp_mmshare_version>
53161

> <i_f3d_flags>
0

> <r_lp_tautomer_probability>
1

> <s_lp_Force_Field>
OPLS_2005

> <r_lp_Energy>
30.424535

> <b_lp_Chiralities_Consistent>
1

> <s_lp_Variant>
CHEMBL3192_lig720-1

> <s_i_glide_gridfile>
glide-grid_3f07

> <i_i_glide_lignum>
764

> <i_i_glide_rotatable_bonds>
8

> <r_i_docking_score>
-8.01358120337505

> <r_i_glide_ligand_efficiency>
-0.320543248135002

> <r_i_glide_ligand_efficiency_sa>
-0.937274142405457

> <r_i_glide_ligand_efficiency_ln>
-1.89945889284983

> <r_i_glide_gscore>
-8.01358120337505

> <r_i_glide_lipo>
-1.38746281603886

> <r_i_glide_hbond>
-0.647092025595466

> <r_i_glide_metal>
-2.3

> <r_i_glide_rewards>
-1.34058527357789

> <r_i_glide_evdw>
-23.3533744812012

> <r_i_glide_ecoul>
-13.9608240127563

> <r_i_glide_erotb>
1.13262296972189

> <r_i_glide_esite>
-0.209271731911205

> <r_i_glide_emodel>
-58.232147632182

> <r_i_glide_energy>
-37.3141984939575

> <r_i_glide_einternal>
2.05805730819702

> <i_i_glide_confnum>
93

> <i_i_glide_posenum>
255

> <r_i_glide_eff_state_penalty>
0

> <s_user_duplicate_titles>
CHEMBL3192_lig720

> <s_m_subgroup_title>
dock_pv

> <s_m_subgroupid>
dock_pv

> <b_m_subgroup_collapsed>
1

$$$$
CHEMBL3192_lig1064
                    3D
 Schrodinger Suite 2021-1.
 44 45  0  0  1  0            999 V2000
  -18.2722   28.7622  -39.2996 C   0  0  0  0  0  0
  -18.9289   30.0724  -39.7602 C   0  0  0  0  0  0
  -19.7814   30.7361  -38.6602 C   0  0  0  0  0  0
  -20.3062   32.1441  -39.0186 C   0  0  0  0  0  0
  -21.8131   32.1037  -40.1667 S   0  0  0  0  0  0
  -22.2518   33.4851  -40.3810 O   0  0  0  0  0  0
  -21.5125   31.2690  -41.3313 O   0  0  0  0  0  0
  -23.0423   31.2691  -39.2056 N   0  0  2  0  0  0
  -24.2899   30.8192  -39.8734 C   0  0  2  0  0  0
  -25.0660   32.0432  -40.3968 C   0  0  0  0  0  0
  -26.3057   31.5799  -41.1613 C   0  0  0  0  0  0
  -27.1230   30.5502  -40.3799 C   0  0  0  0  0  0
  -28.4281   30.2979  -40.7808 C   0  0  0  0  0  0
  -29.1611   29.2667  -40.2280 C   0  0  0  0  0  0
  -28.6111   28.4205  -39.2584 C   0  0  0  0  0  0
  -27.3237   28.7253  -38.7820 C   0  0  0  0  0  0
  -26.5697   29.7913  -39.3210 C   0  0  0  0  0  0
  -25.1755   30.1597  -38.7813 C   0  0  0  0  0  0
  -29.4130   27.2096  -38.8100 C   0  0  0  0  0  0
  -30.2130   26.6675  -39.5810 O   0  0  0  0  0  0
  -29.4130   26.8690  -37.5234 N   0  0  0  0  0  0
  -30.2132   25.7866  -37.1001 O   0  0  0  0  0  0
  -17.6956   28.3106  -40.1076 H   0  0  0  0  0  0
  -19.0130   28.0305  -38.9764 H   0  0  0  0  0  0
  -17.5905   28.9332  -38.4655 H   0  0  0  0  0  0
  -18.1465   30.7615  -40.0815 H   0  0  0  0  0  0
  -19.5335   29.8732  -40.6441 H   0  0  0  0  0  0
  -20.6115   30.0852  -38.3809 H   0  0  0  0  0  0
  -19.1675   30.8276  -37.7627 H   0  0  0  0  0  0
  -20.6132   32.6852  -38.1233 H   0  0  0  0  0  0
  -19.5462   32.7433  -39.5186 H   0  0  0  0  0  0
  -23.2863   31.8489  -38.3960 H   0  0  0  0  0  0
  -24.0926   30.0430  -40.6118 H   0  0  0  0  0  0
  -25.3656   32.7004  -39.5810 H   0  0  0  0  0  0
  -24.4608   32.6515  -41.0661 H   0  0  0  0  0  0
  -26.9202   32.4406  -41.4290 H   0  0  0  0  0  0
  -25.9919   31.1227  -42.1011 H   0  0  0  0  0  0
  -28.8660   30.8692  -41.5810 H   0  0  0  0  0  0
  -30.1549   29.0963  -40.6154 H   0  0  0  0  0  0
  -26.8847   28.1165  -38.0045 H   0  0  0  0  0  0
  -24.6790   29.2794  -38.3719 H   0  0  0  0  0  0
  -25.3139   30.8535  -37.9502 H   0  0  0  0  0  0
  -28.8429   27.2690  -36.7810 H   0  0  0  0  0  0
  -29.5820   25.0760  -36.9442 H   0  0  0  0  0  0
  1  2  1  0  0  0
  1 23  1  0  0  0
  1 24  1  0  0  0
  1 25  1  0  0  0
  2  3  1  0  0  0
  2 26  1  0  0  0
  2 27  1  0  0  0
  3  4  1  0  0  0
  3 28  1  0  0  0
  3 29  1  0  0  0
  4  5  1  0  0  0
  4 30  1  0  0  0
  4 31  1  0  0  0
  5  6  2  0  0  0
  5  7  2  0  0  0
  5  8  1  0  0  0
  8  9  1  0  0  0
  8 32  1  0  0  0
  9 10  1  0  0  0
  9 18  1  0  0  0
  9 33  1  0  0  0
 10 11  1  0  0  0
 10 34  1  0  0  0
 10 35  1  0  0  0
 11 12  1  0  0  0
 11 36  1  0  0  0
 11 37  1  0  0  0
 12 13  2  0  0  0
 12 17  1  0  0  0
 13 14  1  0  0  0
 13 38  1  0  0  0
 14 15  2  0  0  0
 14 39  1  0  0  0
 15 16  1  0  0  0
 15 19  1  0  0  0
 16 17  2  0  0  0
 16 40  1  0  0  0
 17 18  1  0  0  0
 18 41  1  0  0  0
 18 42  1  0  0  0
 19 20  2  0  0  0
 19 21  1  0  0  0
 21 22  1  0  0  0
 21 43  1  0  0  0
 22 44  1  0  0  0
M  END
> <s_m_entry_id>
52876

> <s_m_entry_name>
dock_pv.95

> <s_m_Source_Path>
/home/csk/Desktop/cluster/DUD-E-result/hdac8

> <s_m_Source_File>
dock_pv.maegz

> <i_m_Source_File_Index>
95

> <chembl_id>
CHEMBL3694311

> <chembl_pref_name>
None

> <i_lp_mmshare_version>
53161

> <i_f3d_flags>
0

> <r_lp_tautomer_probability>
1

> <s_lp_Force_Field>
OPLS_2005

> <r_lp_Energy>
14.53405

> <b_lp_Chiralities_Consistent>
1

> <s_lp_Variant>
CHEMBL3192_lig1064-1

> <s_i_glide_gridfile>
glide-grid_3f07

> <i_i_glide_lignum>
1167

> <i_i_glide_rotatable_bonds>
8

> <r_i_docking_score>
-8.00187778168477

> <r_i_glide_ligand_efficiency>
-0.363721717349308

> <r_i_glide_ligand_efficiency_sa>
-1.01916255637619

> <r_i_glide_ligand_efficiency_ln>
-1.95595080542762

> <r_i_glide_gscore>
-8.00187778168477

> <r_i_glide_lipo>
-1.1850266628357

> <r_i_glide_hbond>
-0.628818759541424

> <r_i_glide_metal>
-2.3

> <r_i_glide_rewards>
-1.53094253545881

> <r_i_glide_evdw>
-20.0042629241943

> <r_i_glide_ecoul>
-13.7087125778198

> <r_i_glide_erotb>
1.05613972304295

> <r_i_glide_esite>
-0.356709514009089

> <r_i_glide_emodel>
-51.674480871165

> <r_i_glide_energy>
-33.7129755020142

> <r_i_glide_einternal>
5.13300037384033

> <i_i_glide_confnum>
21

> <i_i_glide_posenum>
34

> <r_i_glide_eff_state_penalty>
0

> <s_user_duplicate_titles>
CHEMBL3192_lig1064

> <s_m_subgroup_title>
dock_pv

> <s_m_subgroupid>
dock_pv

> <b_m_subgroup_collapsed>
1

$$$$
CHEMBL3192_lig490
                    3D
 Schrodinger Suite 2021-1.
 24 24  0  0  1  0            999 V2000
  -30.5169   25.4233  -36.9421 C   0  0  0  0  0  0
  -29.0146   28.9762  -39.9810 C   0  0  0  0  0  0
  -28.6381   28.0291  -39.0249 C   0  0  0  0  0  0
  -27.4130   28.1947  -38.3810 C   0  0  0  0  0  0
  -26.5824   29.2690  -38.7062 C   0  0  0  0  0  0
  -26.9574   30.2045  -39.6814 C   0  0  0  0  0  0
  -28.1941   30.0450  -40.3099 C   0  0  0  0  0  0
  -26.0764   31.3749  -40.0694 C   0  0  0  0  0  0
  -24.8027   31.3506  -39.6286 N   0  0  0  0  0  0
  -26.5351   32.2825  -40.7710 O   0  0  0  0  0  0
  -23.9549   32.4147  -39.9811 O   0  0  0  0  0  0
  -29.5614   26.8690  -38.7201 C   0  0  0  0  0  0
  -29.6330   26.4690  -37.4467 N   0  0  0  0  0  0
  -30.3510   26.4690  -39.5809 O   0  0  0  0  0  0
  -30.1433   25.0509  -35.9879 H   0  0  0  0  0  0
  -30.5790   24.5758  -37.6266 H   0  0  0  0  0  0
  -31.5212   25.8167  -36.7808 H   0  0  0  0  0  0
  -29.9584   28.8930  -40.4987 H   0  0  0  0  0  0
  -27.0817   27.4825  -37.6387 H   0  0  0  0  0  0
  -25.6356   29.3475  -38.1933 H   0  0  0  0  0  0
  -28.5271   30.7399  -41.0686 H   0  0  0  0  0  0
  -24.3528   30.6623  -39.0438 H   0  0  0  0  0  0
  -23.9684   32.9923  -39.2035 H   0  0  0  0  0  0
  -29.0592   26.9466  -36.7585 H   0  0  0  0  0  0
  1 13  1  0  0  0
  1 15  1  0  0  0
  1 16  1  0  0  0
  1 17  1  0  0  0
  2  3  2  0  0  0
  2  7  1  0  0  0
  2 18  1  0  0  0
  3  4  1  0  0  0
  3 12  1  0  0  0
  4  5  2  0  0  0
  4 19  1  0  0  0
  5  6  1  0  0  0
  5 20  1  0  0  0
  6  7  2  0  0  0
  6  8  1  0  0  0
  7 21  1  0  0  0
  8  9  1  0  0  0
  8 10  2  0  0  0
  9 11  1  0  0  0
  9 22  1  0  0  0
 11 23  1  0  0  0
 12 13  1  0  0  0
 12 14  2  0  0  0
 13 24  1  0  0  0
M  END
> <s_m_entry_id>
52877

> <s_m_entry_name>
dock_pv.96

> <s_m_Source_Path>
/home/csk/Desktop/cluster/DUD-E-result/hdac8

> <s_m_Source_File>
dock_pv.maegz

> <i_m_Source_File_Index>
96

> <chembl_id>
CHEMBL2333343

> <chembl_pref_name>
None

> <i_lp_mmshare_version>
53161

> <i_f3d_flags>
0

> <r_lp_tautomer_probability>
1

> <s_lp_Force_Field>
OPLS_2005

> <r_lp_Energy>
20.255371

> <b_lp_Chiralities_Consistent>
1

> <s_lp_Variant>
CHEMBL3192_lig490-1

> <s_i_glide_gridfile>
glide-grid_3f07

> <i_i_glide_lignum>
511

> <i_i_glide_rotatable_bonds>
5

> <r_i_docking_score>
-7.99962117009348

> <r_i_glide_ligand_efficiency>
-0.571401512149534

> <r_i_glide_ligand_efficiency_sa>
-1.37715893303376

> <r_i_glide_ligand_efficiency_ln>
-2.19826742079363

> <r_i_glide_gscore>
-7.99962117009348

> <r_i_glide_lipo>
-1.07614284904551

> <r_i_glide_hbond>
-0.574218629522675

> <r_i_glide_metal>
-2.3

> <r_i_glide_rewards>
-2.32535680569465

> <r_i_glide_evdw>
-14.2724905014038

> <r_i_glide_ecoul>
-13.6890878677368

> <r_i_glide_erotb>
1.28659718062922

> <r_i_glide_esite>
-0.243512361229155

> <r_i_glide_emodel>
-46.5020160951405

> <r_i_glide_energy>
-27.9615783691406

> <r_i_glide_einternal>
1.47245836257935

> <i_i_glide_confnum>
1

> <i_i_glide_posenum>
328

> <r_i_glide_eff_state_penalty>
0

> <s_user_duplicate_titles>
CHEMBL3192_lig490

> <s_m_subgroup_title>
dock_pv

> <s_m_subgroupid>
dock_pv

> <b_m_subgroup_collapsed>
1

$$$$
CHEMBL3192_lig1026
                    3D
 Schrodinger Suite 2021-1.
 39 41  0  0  1  0            999 V2000
  -30.2130   25.3735  -37.2817 O   0  0  0  0  0  0
  -29.4130   26.5079  -37.5255 N   0  0  0  0  0  0
  -29.4130   27.0412  -38.7517 C   0  0  0  0  0  0
  -30.2418   26.6852  -39.5810 O   0  0  0  0  0  0
  -28.4440   28.1684  -39.0362 C   0  0  0  0  0  0
  -27.2349   28.2175  -38.3687 C   0  0  0  0  0  0
  -26.3430   29.2690  -38.5300 C   0  0  0  0  0  0
  -26.5926   30.2882  -39.4265 C   0  0  0  0  0  0
  -25.5308   31.3685  -39.6259 C   0  0  0  0  0  0
  -26.0722   32.5961  -40.3810 C   0  0  0  0  0  0
  -26.9022   32.1822  -41.6049 C   0  0  2  0  0  0
  -28.1186   31.3454  -41.1468 C   0  0  0  0  0  0
  -27.7942   30.2441  -40.1605 C   0  0  0  0  0  0
  -28.7069   29.1928  -39.9544 C   0  0  0  0  0  0
  -26.0586   31.4126  -42.5208 N   0  0  0  0  0  0
  -26.0644   31.5304  -43.9187 C   0  0  0  0  0  0
  -25.0489   30.8665  -44.6082 C   0  0  0  0  0  0
  -24.9703   30.9542  -45.9946 C   0  0  0  0  0  0
  -25.9292   31.6773  -46.6977 C   0  0  0  0  0  0
  -25.8630   31.7411  -48.0464 F   0  0  0  0  0  0
  -26.9519   32.3373  -46.0217 C   0  0  0  0  0  0
  -27.0130   32.2758  -44.6310 C   0  0  0  0  0  0
  -29.5816   24.6453  -37.2345 H   0  0  0  0  0  0
  -28.8441   26.7839  -36.7298 H   0  0  0  0  0  0
  -27.0065   27.4440  -37.6522 H   0  0  0  0  0  0
  -25.4136   29.2659  -37.9810 H   0  0  0  0  0  0
  -25.1160   31.6690  -38.6629 H   0  0  0  0  0  0
  -24.6975   30.9369  -40.1819 H   0  0  0  0  0  0
  -26.6853   33.1945  -39.7052 H   0  0  0  0  0  0
  -25.2458   33.2450  -40.6755 H   0  0  0  0  0  0
  -27.2597   33.0801  -42.1087 H   0  0  0  0  0  0
  -28.6130   30.8690  -41.9810 H   0  0  0  0  0  0
  -28.8474   32.0086  -40.6842 H   0  0  0  0  0  0
  -29.6358   29.1940  -40.5070 H   0  0  0  0  0  0
  -25.5439   30.6457  -42.1140 H   0  0  0  0  0  0
  -24.3016   30.3009  -44.0716 H   0  0  0  0  0  0
  -24.1669   30.4689  -46.5260 H   0  0  0  0  0  0
  -27.6900   32.8981  -46.5758 H   0  0  0  0  0  0
  -27.8127   32.7961  -44.1302 H   0  0  0  0  0  0
  1  2  1  0  0  0
  1 23  1  0  0  0
  2  3  1  0  0  0
  2 24  1  0  0  0
  3  4  2  0  0  0
  3  5  1  0  0  0
  5  6  2  0  0  0
  5 14  1  0  0  0
  6  7  1  0  0  0
  6 25  1  0  0  0
  7  8  2  0  0  0
  7 26  1  0  0  0
  8  9  1  0  0  0
  8 13  1  0  0  0
  9 10  1  0  0  0
  9 27  1  0  0  0
  9 28  1  0  0  0
 10 11  1  0  0  0
 10 29  1  0  0  0
 10 30  1  0  0  0
 11 12  1  0  0  0
 11 15  1  0  0  0
 11 31  1  0  0  0
 12 13  1  0  0  0
 12 32  1  0  0  0
 12 33  1  0  0  0
 13 14  2  0  0  0
 14 34  1  0  0  0
 15 16  1  0  0  0
 15 35  1  0  0  0
 16 17  2  0  0  0
 16 22  1  0  0  0
 17 18  1  0  0  0
 17 36  1  0  0  0
 18 19  2  0  0  0
 18 37  1  0  0  0
 19 20  1  0  0  0
 19 21  1  0  0  0
 21 22  2  0  0  0
 21 38  1  0  0  0
 22 39  1  0  0  0
M  END
> <s_m_entry_id>
52878

> <s_m_entry_name>
dock_pv.97

> <s_m_Source_Path>
/home/csk/Desktop/cluster/DUD-E-result/hdac8

> <s_m_Source_File>
dock_pv.maegz

> <i_m_Source_File_Index>
97

> <chembl_id>
CHEMBL3357474

> <chembl_pref_name>
None

> <i_lp_mmshare_version>
53161

> <i_f3d_flags>
0

> <r_lp_tautomer_probability>
1

> <s_lp_Force_Field>
OPLS_2005

> <r_lp_Energy>
24.889289

> <b_lp_Chiralities_Consistent>
1

> <s_lp_Variant>
CHEMBL3192_lig1026-1

> <s_i_glide_gridfile>
glide-grid_3f07

> <i_i_glide_lignum>
1091

> <i_i_glide_rotatable_bonds>
5

> <r_i_docking_score>
-7.99883485060529

> <r_i_glide_ligand_efficiency>
-0.363583402300241

> <r_i_glide_ligand_efficiency_sa>
-1.01877499216908

> <r_i_glide_ligand_efficiency_ln>
-1.95520700207818

> <r_i_glide_gscore>
-7.99883485060529

> <r_i_glide_lipo>
-1.43819310024945

> <r_i_glide_hbond>
-0.606059379561466

> <r_i_glide_metal>
-2.3

> <r_i_glide_rewards>
-1.61525099420954

> <r_i_glide_evdw>
-17.1506977081299

> <r_i_glide_ecoul>
-11.9893035888672

> <r_i_glide_erotb>
0.815108821550125

> <r_i_glide_esite>
-0.198509774398395

> <r_i_glide_emodel>
-46.654457030884

> <r_i_glide_energy>
-29.1400012969971

> <r_i_glide_einternal>
1.04739820957184

> <i_i_glide_confnum>
50

> <i_i_glide_posenum>
68

> <r_i_glide_eff_state_penalty>
0

> <s_user_duplicate_titles>
CHEMBL3192_lig1026

> <s_m_subgroup_title>
dock_pv

> <s_m_subgroupid>
dock_pv

> <b_m_subgroup_collapsed>
1

$$$$
CHEMBL3192_lig486
                    3D
 Schrodinger Suite 2021-1.
 21 21  0  0  1  0            999 V2000
  -29.4129   27.2690  -38.8297 C   0  0  0  0  0  0
  -29.4130   26.7999  -37.5810 N   0  0  0  0  0  0
  -30.2512   26.8690  -39.6316 O   0  0  0  0  0  0
  -30.2130   25.6765  -37.2796 O   0  0  0  0  0  0
  -28.5331   28.3950  -39.1272 C   0  0  0  0  0  0
  -27.3303   28.5517  -38.5251 C   0  0  0  0  0  0
  -26.3667   29.7089  -38.7810 C   0  0  0  0  0  0
  -26.7850   30.5704  -39.9893 C   0  0  0  0  0  0
  -28.3076   30.7527  -40.0709 C   0  0  0  0  0  0
  -29.0129   29.3909  -40.1970 C   0  0  0  0  0  0
  -28.8147   27.0931  -36.8118 H   0  0  0  0  0  0
  -29.5783   24.9580  -37.1810 H   0  0  0  0  0  0
  -27.0130   27.8178  -37.7978 H   0  0  0  0  0  0
  -26.3404   30.3367  -37.8903 H   0  0  0  0  0  0
  -25.3475   29.3454  -38.9145 H   0  0  0  0  0  0
  -26.2891   31.5412  -39.9389 H   0  0  0  0  0  0
  -26.4307   30.0995  -40.9080 H   0  0  0  0  0  0
  -28.5614   31.3840  -40.9230 H   0  0  0  0  0  0
  -28.6675   31.2690  -39.1810 H   0  0  0  0  0  0
  -28.7867   28.9870  -41.1810 H   0  0  0  0  0  0
  -30.0932   29.5348  -40.1855 H   0  0  0  0  0  0
  1  2  1  0  0  0
  1  3  2  0  0  0
  1  5  1  0  0  0
  2  4  1  0  0  0
  2 11  1  0  0  0
  4 12  1  0  0  0
  5  6  2  0  0  0
  5 10  1  0  0  0
  6  7  1  0  0  0
  6 13  1  0  0  0
  7  8  1  0  0  0
  7 14  1  0  0  0
  7 15  1  0  0  0
  8  9  1  0  0  0
  8 16  1  0  0  0
  8 17  1  0  0  0
  9 10  1  0  0  0
  9 18  1  0  0  0
  9 19  1  0  0  0
 10 20  1  0  0  0
 10 21  1  0  0  0
M  END
> <s_m_entry_id>
52879

> <s_m_entry_name>
dock_pv.98

> <s_m_Source_Path>
/home/csk/Desktop/cluster/DUD-E-result/hdac8

> <s_m_Source_File>
dock_pv.maegz

> <i_m_Source_File_Index>
98

> <chembl_id>
CHEMBL2333344

> <chembl_pref_name>
None

> <i_lp_mmshare_version>
53161

> <i_f3d_flags>
0

> <r_lp_tautomer_probability>
1

> <s_lp_Force_Field>
OPLS_2005

> <r_lp_Energy>
16.834659

> <b_lp_Chiralities_Consistent>
1

> <s_lp_Variant>
CHEMBL3192_lig486-1

> <s_i_glide_gridfile>
glide-grid_3f07

> <i_i_glide_lignum>
507

> <i_i_glide_rotatable_bonds>
3

> <r_i_docking_score>
-7.99428691713193

> <r_i_glide_ligand_efficiency>
-0.799428691713193

> <r_i_glide_ligand_efficiency_sa>
-1.72231690431178

> <r_i_glide_ligand_efficiency_ln>
-2.42061497040323

> <r_i_glide_gscore>
-7.99428691713193

> <r_i_glide_lipo>
-0.996145486912789

> <r_i_glide_hbond>
-0.608

> <r_i_glide_metal>
-1.83647853072786

> <r_i_glide_rewards>
-2.50832401173501

> <r_i_glide_evdw>
-11.7288579940796

> <r_i_glide_ecoul>
-13.1901969909668

> <r_i_glide_erotb>
0.719633560592731

> <r_i_glide_esite>
-0.2

> <r_i_glide_emodel>
-40.1353220102519

> <r_i_glide_energy>
-24.9190549850464

> <r_i_glide_einternal>
0.0342402793467045

> <i_i_glide_confnum>
1

> <i_i_glide_posenum>
89

> <r_i_glide_eff_state_penalty>
0

> <s_user_duplicate_titles>
CHEMBL3192_lig486

> <s_m_subgroup_title>
dock_pv

> <s_m_subgroupid>
dock_pv

> <b_m_subgroup_collapsed>
1

$$$$
CHEMBL3192_lig240
                    3D
 Schrodinger Suite 2021-1.
 47 50  0  0  1  0            999 V2000
  -27.5319   34.5552  -42.7343 C   0  0  0  0  0  0
  -28.6962   35.3191  -42.7155 C   0  0  0  0  0  0
  -29.0130   36.0690  -41.5850 C   0  0  0  0  0  0
  -28.1866   36.0433  -40.4640 C   0  0  0  0  0  0
  -27.0256   35.2747  -40.4812 C   0  0  0  0  0  0
  -26.6842   34.5369  -41.6190 C   0  0  0  0  0  0
  -25.2613   32.6129  -42.5077 N   0  0  0  0  0  0
  -24.4861   32.0174  -46.5083 C   0  0  0  0  0  0
  -24.3631   33.3344  -46.0639 C   0  0  0  0  0  0
  -24.5956   33.6913  -44.7327 C   0  0  0  0  0  0
  -24.8525   30.9920  -45.6359 C   0  0  0  0  0  0
  -25.4706   30.5006  -43.2718 N   0  0  0  0  0  0
  -25.0918   31.3189  -44.2956 C   0  0  0  0  0  0
  -24.9569   32.6583  -43.8576 C   0  0  0  0  0  0
  -25.5504   31.2824  -42.2197 C   0  0  0  0  0  0
  -25.9432   30.7413  -40.8840 C   0  0  0  0  0  0
  -25.2355   31.0647  -39.7217 C   0  0  0  0  0  0
  -25.6295   30.5496  -38.4920 C   0  0  0  0  0  0
  -26.7063   29.6693  -38.4204 C   0  0  0  0  0  0
  -27.4003   29.2940  -39.5707 C   0  0  0  0  0  0
  -27.0139   29.8428  -40.7968 C   0  0  0  0  0  0
  -28.5060   28.3240  -39.5262 C   0  0  0  0  0  0
  -28.7019   27.3765  -38.5787 C   0  0  0  0  0  0
  -29.8231   26.4690  -38.6273 C   0  0  0  0  0  0
  -29.9633   25.6767  -37.5532 N   0  0  0  0  0  0
  -30.6130   26.4690  -39.5808 O   0  0  0  0  0  0
  -31.0130   24.7424  -37.5393 O   0  0  0  0  0  0
  -25.3546   33.7795  -41.6183 C   0  0  0  0  0  0
  -27.2904   33.9994  -43.6276 H   0  0  0  0  0  0
  -29.3390   35.3456  -43.5835 H   0  0  0  0  0  0
  -29.9038   36.6802  -41.5809 H   0  0  0  0  0  0
  -28.4316   36.6290  -39.5897 H   0  0  0  0  0  0
  -26.3794   35.2690  -39.6130 H   0  0  0  0  0  0
  -24.2962   31.7914  -47.5478 H   0  0  0  0  0  0
  -24.0791   34.1003  -46.7716 H   0  0  0  0  0  0
  -24.4975   34.7150  -44.4022 H   0  0  0  0  0  0
  -24.9546   29.9761  -45.9810 H   0  0  0  0  0  0
  -24.3679   31.7072  -39.7546 H   0  0  0  0  0  0
  -25.0920   30.8364  -37.5999 H   0  0  0  0  0  0
  -27.0130   29.2786  -37.4670 H   0  0  0  0  0  0
  -27.5460   29.5720  -41.6971 H   0  0  0  0  0  0
  -29.2129   28.4281  -40.3379 H   0  0  0  0  0  0
  -28.0179   27.2690  -37.7495 H   0  0  0  0  0  0
  -29.3730   25.6262  -36.7341 H   0  0  0  0  0  0
  -30.5589   23.8894  -37.5824 H   0  0  0  0  0  0
  -25.1177   33.4849  -40.6007 H   0  0  0  0  0  0
  -24.5654   34.4776  -41.9005 H   0  0  0  0  0  0
  1  6  1  0  0  0
  1  2  2  0  0  0
  1 29  1  0  0  0
  2  3  1  0  0  0
  2 30  1  0  0  0
  3  4  2  0  0  0
  3 31  1  0  0  0
  4  5  1  0  0  0
  4 32  1  0  0  0
  5  6  2  0  0  0
  5 33  1  0  0  0
  6 28  1  0  0  0
  7 14  1  0  0  0
  7 15  1  0  0  0
  7 28  1  0  0  0
  8  9  2  0  0  0
  8 11  1  0  0  0
  8 34  1  0  0  0
  9 10  1  0  0  0
  9 35  1  0  0  0
 10 14  2  0  0  0
 10 36  1  0  0  0
 11 13  2  0  0  0
 11 37  1  0  0  0
 12 13  1  0  0  0
 12 15  2  0  0  0
 13 14  1  0  0  0
 15 16  1  0  0  0
 16 17  2  0  0  0
 16 21  1  0  0  0
 17 18  1  0  0  0
 17 38  1  0  0  0
 18 19  2  0  0  0
 18 39  1  0  0  0
 19 20  1  0  0  0
 19 40  1  0  0  0
 20 21  2  0  0  0
 20 22  1  0  0  0
 21 41  1  0  0  0
 22 23  2  0  0  0
 22 42  1  0  0  0
 23 24  1  0  0  0
 23 43  1  0  0  0
 24 25  1  0  0  0
 24 26  2  0  0  0
 25 27  1  0  0  0
 25 44  1  0  0  0
 27 45  1  0  0  0
 28 46  1  0  0  0
 28 47  1  0  0  0
M  END
> <s_m_entry_id>
52880

> <s_m_entry_name>
dock_pv.99

> <s_m_Source_Path>
/home/csk/Desktop/cluster/DUD-E-result/hdac8

> <s_m_Source_File>
dock_pv.maegz

> <i_m_Source_File_Index>
99

> <chembl_id>
CHEMBL1097981

> <chembl_pref_name>
None

> <i_lp_mmshare_version>
53161

> <i_f3d_flags>
0

> <r_lp_tautomer_probability>
1

> <s_lp_Force_Field>
OPLS_2005

> <r_lp_Energy>
26.855987

> <b_lp_Chiralities_Consistent>
1

> <s_lp_Variant>
CHEMBL3192_lig240-1

> <s_i_glide_gridfile>
glide-grid_3f07

> <i_i_glide_lignum>
250

> <i_i_glide_rotatable_bonds>
7

> <r_i_docking_score>
-7.99366115273451

> <r_i_glide_ligand_efficiency>
-0.285487898311947

> <r_i_glide_ligand_efficiency_sa>
-0.866909402655112

> <r_i_glide_ligand_efficiency_ln>
-1.8451716981411

> <r_i_glide_gscore>
-7.99366115273451

> <r_i_glide_lipo>
-1.15978482756457

> <r_i_glide_hbond>
-0.30644700061036

> <r_i_glide_metal>
-2.3

> <r_i_glide_rewards>
-1.07357631364623

> <r_i_glide_evdw>
-29.414026260376

> <r_i_glide_ecoul>
-15.9044008255005

> <r_i_glide_erotb>
0.847703622345508

> <r_i_glide_esite>
-0.145195196414995

> <r_i_glide_emodel>
-73.248662297757

> <r_i_glide_energy>
-45.3184270858765

> <r_i_glide_einternal>
1.47171187400818

> <i_i_glide_confnum>
4

> <i_i_glide_posenum>
111

> <r_i_glide_eff_state_penalty>
0

> <s_user_duplicate_titles>
CHEMBL3192_lig240,625394

> <s_m_subgroup_title>
dock_pv

> <s_m_subgroupid>
dock_pv

> <b_m_subgroup_collapsed>
1

$$$$
CHEMBL3192_lig483
                    3D
 Schrodinger Suite 2021-1.
 46 49  0  0  1  0            999 V2000
  -25.8375   31.4635  -46.7478 C   0  0  0  0  0  0
  -25.7386   31.3338  -45.2973 N   0  0  2  0  0  0
  -26.7357   32.1831  -44.6329 C   0  0  0  0  0  0
  -26.8285   31.8545  -43.1186 C   0  0  0  0  0  0
  -25.4333   31.7025  -42.5372 C   0  0  0  0  0  0
  -24.2992   31.6420  -43.3245 C   0  0  0  0  0  0
  -24.3739   31.6591  -44.8471 C   0  0  0  0  0  0
  -23.1841   31.6637  -42.4311 C   0  0  0  0  0  0
  -21.7927   31.6694  -42.6203 C   0  0  0  0  0  0
  -20.9587   31.6686  -41.5043 C   0  0  0  0  0  0
  -21.4851   31.6665  -40.2164 C   0  0  0  0  0  0
  -22.8598   31.6694  -39.9808 C   0  0  0  0  0  0
  -23.7073   31.6745  -41.0980 C   0  0  0  0  0  0
  -25.0933   31.7306  -41.1981 N   0  0  0  0  0  0
  -26.0335   31.8681  -40.0789 C   0  0  0  0  0  0
  -26.8965   30.6450  -39.7783 C   0  0  0  0  0  0
  -28.1896   30.5515  -40.2956 C   0  0  0  0  0  0
  -28.9913   29.4566  -39.9845 C   0  0  0  0  0  0
  -28.5223   28.4454  -39.1351 C   0  0  0  0  0  0
  -27.2283   28.5490  -38.6193 C   0  0  0  0  0  0
  -26.4197   29.6413  -38.9353 C   0  0  0  0  0  0
  -29.4128   27.2690  -38.8042 C   0  0  0  0  0  0
  -30.2323   26.8673  -39.6218 O   0  0  0  0  0  0
  -29.4129   26.7961  -37.5605 N   0  0  0  0  0  0
  -30.2130   25.6723  -37.2656 O   0  0  0  0  0  0
  -25.1020   30.8305  -47.2436 H   0  0  0  0  0  0
  -26.8239   31.1559  -47.0970 H   0  0  0  0  0  0
  -25.6693   32.4912  -47.0722 H   0  0  0  0  0  0
  -27.7236   32.0125  -45.0645 H   0  0  0  0  0  0
  -26.5219   33.2386  -44.8108 H   0  0  0  0  0  0
  -27.3927   30.9291  -43.0031 H   0  0  0  0  0  0
  -27.4131   32.6156  -42.6071 H   0  0  0  0  0  0
  -24.1048   32.6621  -45.1835 H   0  0  0  0  0  0
  -23.6587   30.9579  -45.2804 H   0  0  0  0  0  0
  -21.3719   31.6628  -43.6156 H   0  0  0  0  0  0
  -19.8862   31.6717  -41.6383 H   0  0  0  0  0  0
  -20.8103   31.6792  -39.3716 H   0  0  0  0  0  0
  -23.2372   31.6957  -38.9692 H   0  0  0  0  0  0
  -26.6603   32.7410  -40.2666 H   0  0  0  0  0  0
  -25.4718   32.1178  -39.1792 H   0  0  0  0  0  0
  -28.5801   31.3254  -40.9373 H   0  0  0  0  0  0
  -29.9845   29.4098  -40.4069 H   0  0  0  0  0  0
  -26.8395   27.7750  -37.9773 H   0  0  0  0  0  0
  -25.4201   29.7026  -38.5279 H   0  0  0  0  0  0
  -28.8339   27.1022  -36.7812 H   0  0  0  0  0  0
  -29.5797   24.9513  -37.1790 H   0  0  0  0  0  0
  1  2  1  0  0  0
  1 26  1  0  0  0
  1 27  1  0  0  0
  1 28  1  0  0  0
  2  3  1  0  0  0
  2  7  1  0  0  0
  3  4  1  0  0  0
  3 29  1  0  0  0
  3 30  1  0  0  0
  4  5  1  0  0  0
  4 31  1  0  0  0
  4 32  1  0  0  0
  5  6  2  0  0  0
  5 14  1  0  0  0
  6  7  1  0  0  0
  6  8  1  0  0  0
  7 33  1  0  0  0
  7 34  1  0  0  0
  8  9  2  0  0  0
  8 13  1  0  0  0
  9 10  1  0  0  0
  9 35  1  0  0  0
 10 11  2  0  0  0
 10 36  1  0  0  0
 11 12  1  0  0  0
 11 37  1  0  0  0
 12 13  2  0  0  0
 12 38  1  0  0  0
 13 14  1  0  0  0
 14 15  1  0  0  0
 15 16  1  0  0  0
 15 39  1  0  0  0
 15 40  1  0  0  0
 16 17  2  0  0  0
 16 21  1  0  0  0
 17 18  1  0  0  0
 17 41  1  0  0  0
 18 19  2  0  0  0
 18 42  1  0  0  0
 19 20  1  0  0  0
 19 22  1  0  0  0
 20 21  2  0  0  0
 20 43  1  0  0  0
 21 44  1  0  0  0
 22 23  2  0  0  0
 22 24  1  0  0  0
 24 25  1  0  0  0
 24 45  1  0  0  0
 25 46  1  0  0  0
M  END
> <s_m_entry_id>
52881

> <s_m_entry_name>
dock_pv.100

> <s_m_Source_Path>
/home/csk/Desktop/cluster/DUD-E-result/hdac8

> <s_m_Source_File>
dock_pv.maegz

> <i_m_Source_File_Index>
100

> <chembl_id>
CHEMBL2018302

> <chembl_pref_name>
TUBASTATIN A

> <i_lp_mmshare_version>
53161

> <i_f3d_flags>
0

> <r_lp_tautomer_probability>
1

> <s_lp_Force_Field>
OPLS_2005

> <r_lp_Energy>
35.778327

> <b_lp_Chiralities_Consistent>
1

> <s_lp_Variant>
CHEMBL3192_lig483-1

> <s_i_glide_gridfile>
glide-grid_3f07

> <i_i_glide_lignum>
504

> <i_i_glide_rotatable_bonds>
5

> <r_i_docking_score>
-7.98695752677638

> <r_i_glide_ligand_efficiency>
-0.319478301071055

> <r_i_glide_ligand_efficiency_sa>
-0.934160218303561

> <r_i_glide_ligand_efficiency_ln>
-1.89314828364874

> <r_i_glide_gscore>
-7.98695752677638

> <r_i_glide_lipo>
-1.30080986991135

> <r_i_glide_hbond>
-0.608

> <r_i_glide_metal>
-1.7956909170472

> <r_i_glide_rewards>
-1.40090825238725

> <r_i_glide_evdw>
-25.4054260253906

> <r_i_glide_ecoul>
-13.7547874450684

> <r_i_glide_erotb>
0.671081733881819

> <r_i_glide_esite>
-0.219140803282617

> <r_i_glide_emodel>
-61.0332044809381

> <r_i_glide_energy>
-39.160213470459

> <r_i_glide_einternal>
3.01252555847168

> <i_i_glide_confnum>
15

> <i_i_glide_posenum>
188

> <r_i_glide_eff_state_penalty>
0

> <s_user_duplicate_titles>
CHEMBL3192_lig483

> <s_m_subgroup_title>
dock_pv

> <s_m_subgroupid>
dock_pv

> <b_m_subgroup_collapsed>
1

$$$$
CHEMBL3192_lig936
                    3D
 Schrodinger Suite 2021-1.
 44 46  0  0  1  0            999 V2000
  -23.1099   31.0333  -44.5742 N   0  0  0  0  0  0
  -24.2955   30.5158  -44.1858 C   0  0  0  0  0  0
  -24.8617   30.6310  -42.9663 N   0  0  0  0  0  0
  -24.2110   31.3539  -42.0100 C   0  0  0  0  0  0
  -25.0396   29.6690  -45.1810 C   0  0  0  0  0  0
  -24.8185   31.3359  -40.7185 N   0  0  0  0  0  0
  -25.9570   30.5902  -40.2972 C   0  0  0  0  0  0
  -24.1462   32.0690  -39.6432 C   0  0  0  0  0  0
  -25.9479   29.9107  -39.0711 C   0  0  0  0  0  0
  -27.0130   29.1052  -38.6910 C   0  0  0  0  0  0
  -28.1152   28.9409  -39.5339 C   0  0  0  0  0  0
  -28.1677   29.6690  -40.7205 C   0  0  0  0  0  0
  -27.1045   30.4871  -41.0971 C   0  0  0  0  0  0
  -29.1611   28.0766  -39.2745 O   0  0  0  0  0  0
  -29.1641   27.3190  -38.0574 C   0  0  0  0  0  0
  -30.2130   26.2009  -38.1448 C   0  0  0  0  0  0
  -30.3717   25.4344  -37.0529 N   0  0  0  0  0  0
  -30.8780   26.0690  -39.1810 O   0  0  0  0  0  0
  -31.3416   24.4203  -37.0905 O   0  0  0  0  0  0
  -22.4706   31.7616  -43.6293 C   0  0  0  0  0  0
  -22.9794   31.9855  -42.3423 C   0  0  0  0  0  0
  -21.9638   32.8081  -41.5581 C   0  0  0  0  0  0
  -20.9673   33.2959  -42.6143 C   0  0  0  0  0  0
  -21.0955   32.3555  -43.8081 C   0  0  0  0  0  0
  -24.9571   30.0922  -46.1816 H   0  0  0  0  0  0
  -24.6130   28.6670  -45.1810 H   0  0  0  0  0  0
  -26.1014   29.6021  -44.9395 H   0  0  0  0  0  0
  -23.1765   31.6338  -39.4009 H   0  0  0  0  0  0
  -24.0424   33.1218  -39.8995 H   0  0  0  0  0  0
  -24.7257   32.0690  -38.7245 H   0  0  0  0  0  0
  -25.0856   29.9519  -38.4220 H   0  0  0  0  0  0
  -26.9432   28.5891  -37.7488 H   0  0  0  0  0  0
  -29.0265   29.5805  -41.3686 H   0  0  0  0  0  0
  -27.1741   31.0285  -42.0285 H   0  0  0  0  0  0
  -29.4130   27.9773  -37.2236 H   0  0  0  0  0  0
  -28.1892   26.8690  -37.8971 H   0  0  0  0  0  0
  -29.8663   25.4759  -36.1770 H   0  0  0  0  0  0
  -30.8260   23.6130  -37.2104 H   0  0  0  0  0  0
  -22.3818   33.6737  -41.0453 H   0  0  0  0  0  0
  -21.4453   32.1927  -40.8216 H   0  0  0  0  0  0
  -19.9470   33.3492  -42.2321 H   0  0  0  0  0  0
  -21.2391   34.3069  -42.9243 H   0  0  0  0  0  0
  -20.3317   31.5773  -43.7767 H   0  0  0  0  0  0
  -20.9793   32.8932  -44.7498 H   0  0  0  0  0  0
  1 20  1  0  0  0
  1  2  2  0  0  0
  2  3  1  0  0  0
  2  5  1  0  0  0
  3  4  2  0  0  0
  4 21  1  0  0  0
  4  6  1  0  0  0
  5 25  1  0  0  0
  5 26  1  0  0  0
  5 27  1  0  0  0
  6  7  1  0  0  0
  6  8  1  0  0  0
  7  9  2  0  0  0
  7 13  1  0  0  0
  8 28  1  0  0  0
  8 29  1  0  0  0
  8 30  1  0  0  0
  9 10  1  0  0  0
  9 31  1  0  0  0
 10 11  2  0  0  0
 10 32  1  0  0  0
 11 12  1  0  0  0
 11 14  1  0  0  0
 12 13  2  0  0  0
 12 33  1  0  0  0
 13 34  1  0  0  0
 14 15  1  0  0  0
 15 16  1  0  0  0
 15 35  1  0  0  0
 15 36  1  0  0  0
 16 17  1  0  0  0
 16 18  2  0  0  0
 17 19  1  0  0  0
 17 37  1  0  0  0
 19 38  1  0  0  0
 20 21  2  0  0  0
 20 24  1  0  0  0
 21 22  1  0  0  0
 22 23  1  0  0  0
 22 39  1  0  0  0
 22 40  1  0  0  0
 23 24  1  0  0  0
 23 41  1  0  0  0
 23 42  1  0  0  0
 24 43  1  0  0  0
 24 44  1  0  0  0
M  END
> <s_m_entry_id>
52882

> <s_m_entry_name>
dock_pv.101

> <s_m_Source_Path>
/home/csk/Desktop/cluster/DUD-E-result/hdac8

> <s_m_Source_File>
dock_pv.maegz

> <i_m_Source_File_Index>
101

> <chembl_id>
CHEMBL3775581

> <chembl_pref_name>
None

> <i_lp_mmshare_version>
53161

> <i_f3d_flags>
0

> <r_lp_tautomer_probability>
1

> <s_lp_Force_Field>
OPLS_2005

> <r_lp_Energy>
41.931923

> <b_lp_Chiralities_Consistent>
1

> <s_lp_Variant>
CHEMBL3192_lig936-1

> <s_i_glide_gridfile>
glide-grid_3f07

> <i_i_glide_lignum>
997

> <i_i_glide_rotatable_bonds>
7

> <r_i_docking_score>
-7.969697347389

> <r_i_glide_ligand_efficiency>
-0.332070722807875

> <r_i_glide_ligand_efficiency_sa>
-0.957857713547949

> <r_i_glide_ligand_efficiency_ln>
-1.90751428081176

> <r_i_glide_gscore>
-7.969697347389

> <r_i_glide_lipo>
-1.17444318302112

> <r_i_glide_hbond>
-0.418158321463464

> <r_i_glide_metal>
-2.3

> <r_i_glide_rewards>
-1.05186641991227

> <r_i_glide_evdw>
-31.7269248962402

> <r_i_glide_ecoul>
-15.8182954788208

> <r_i_glide_erotb>
1.04506874655139

> <r_i_glide_esite>
-0.111207602908397

> <r_i_glide_emodel>
-74.3209973031639

> <r_i_glide_energy>
-47.545220375061

> <r_i_glide_einternal>
1.98909413814545

> <i_i_glide_confnum>
39

> <i_i_glide_posenum>
60

> <r_i_glide_eff_state_penalty>
0

> <s_user_duplicate_titles>
CHEMBL3192_lig936

> <s_m_subgroup_title>
dock_pv

> <s_m_subgroupid>
dock_pv

> <b_m_subgroup_collapsed>
1

$$$$
CHEMBL3192_lig1051
                    3D
 Schrodinger Suite 2021-1.
 49 52  0  0  1  0            999 V2000
  -29.4130   34.5859  -49.7808 C   0  0  0  0  0  0
  -29.0130   34.6236  -48.3182 C   0  0  0  0  0  0
  -29.4327   35.6690  -47.4951 C   0  0  0  0  0  0
  -29.1194   35.7417  -46.1792 N   0  0  0  0  0  0
  -28.3523   34.7518  -45.6581 C   0  0  0  0  0  0
  -27.8693   33.6578  -46.3969 C   0  0  0  0  0  0
  -28.2320   33.6105  -47.7538 C   0  0  0  0  0  0
  -26.9996   32.6088  -45.7770 C   0  0  0  0  0  0
  -26.1618   31.7773  -46.5352 C   0  0  0  0  0  0
  -25.3599   30.8690  -45.8448 C   0  0  0  0  0  0
  -25.3714   30.7639  -44.4937 N   0  0  0  0  0  0
  -26.1959   31.6095  -43.8286 C   0  0  0  0  0  0
  -26.1335   31.5163  -42.4339 N   0  0  0  0  0  0
  -27.0114   32.2517  -41.5189 C   0  0  2  0  0  0
  -26.2188   32.6647  -40.2688 C   0  0  0  0  0  0
  -25.6435   31.4358  -39.5419 C   0  0  0  0  0  0
  -26.6679   30.3121  -39.3894 C   0  0  0  0  0  0
  -26.3845   29.2690  -38.5274 C   0  0  0  0  0  0
  -27.2542   28.1992  -38.3810 C   0  0  0  0  0  0
  -28.4675   28.1463  -39.0374 C   0  0  0  0  0  0
  -28.7563   29.1820  -39.9376 C   0  0  0  0  0  0
  -27.8684   30.2584  -40.1283 C   0  0  0  0  0  0
  -28.2103   31.3647  -41.1131 C   0  0  0  0  0  0
  -29.4130   27.0009  -38.7537 C   0  0  0  0  0  0
  -30.2391   26.6332  -39.5810 O   0  0  0  0  0  0
  -29.4130   26.4729  -37.5244 N   0  0  0  0  0  0
  -30.2130   25.3392  -37.2754 O   0  0  0  0  0  0
  -27.0130   32.5256  -44.4154 N   0  0  0  0  0  0
  -30.4999   34.5729  -49.8701 H   0  0  0  0  0  0
  -29.0539   35.4793  -50.2925 H   0  0  0  0  0  0
  -29.0130   33.7105  -50.2938 H   0  0  0  0  0  0
  -30.0478   36.4670  -47.8844 H   0  0  0  0  0  0
  -28.1119   34.8650  -44.6112 H   0  0  0  0  0  0
  -27.9198   32.7869  -48.3783 H   0  0  0  0  0  0
  -26.1067   31.8401  -47.6108 H   0  0  0  0  0  0
  -24.6824   30.2150  -46.3712 H   0  0  0  0  0  0
  -25.5942   30.7566  -42.0472 H   0  0  0  0  0  0
  -27.3907   33.1425  -42.0218 H   0  0  0  0  0  0
  -26.8657   33.2196  -39.5877 H   0  0  0  0  0  0
  -25.4126   33.3520  -40.5308 H   0  0  0  0  0  0
  -25.2559   31.7180  -38.5628 H   0  0  0  0  0  0
  -24.7863   31.0513  -40.0964 H   0  0  0  0  0  0
  -25.4534   29.2701  -37.9810 H   0  0  0  0  0  0
  -27.0086   27.4155  -37.6816 H   0  0  0  0  0  0
  -29.6869   29.1725  -40.4872 H   0  0  0  0  0  0
  -28.6130   30.8690  -41.9810 H   0  0  0  0  0  0
  -28.9997   31.9823  -40.6891 H   0  0  0  0  0  0
  -28.8523   26.7588  -36.7266 H   0  0  0  0  0  0
  -29.5816   24.6108  -37.2295 H   0  0  0  0  0  0
  1  2  1  0  0  0
  1 29  1  0  0  0
  1 30  1  0  0  0
  1 31  1  0  0  0
  2  3  2  0  0  0
  2  7  1  0  0  0
  3  4  1  0  0  0
  3 32  1  0  0  0
  4  5  2  0  0  0
  5  6  1  0  0  0
  5 33  1  0  0  0
  6  7  2  0  0  0
  6  8  1  0  0  0
  7 34  1  0  0  0
  8  9  2  0  0  0
  8 28  1  0  0  0
  9 10  1  0  0  0
  9 35  1  0  0  0
 10 11  2  0  0  0
 10 36  1  0  0  0
 11 12  1  0  0  0
 12 13  1  0  0  0
 12 28  2  0  0  0
 13 14  1  0  0  0
 13 37  1  0  0  0
 14 15  1  0  0  0
 14 23  1  0  0  0
 14 38  1  0  0  0
 15 16  1  0  0  0
 15 39  1  0  0  0
 15 40  1  0  0  0
 16 17  1  0  0  0
 16 41  1  0  0  0
 16 42  1  0  0  0
 17 18  2  0  0  0
 17 22  1  0  0  0
 18 19  1  0  0  0
 18 43  1  0  0  0
 19 20  2  0  0  0
 19 44  1  0  0  0
 20 21  1  0  0  0
 20 24  1  0  0  0
 21 22  2  0  0  0
 21 45  1  0  0  0
 22 23  1  0  0  0
 23 46  1  0  0  0
 23 47  1  0  0  0
 24 25  2  0  0  0
 24 26  1  0  0  0
 26 27  1  0  0  0
 26 48  1  0  0  0
 27 49  1  0  0  0
M  END
> <s_m_entry_id>
52883

> <s_m_entry_name>
dock_pv.102

> <s_m_Source_Path>
/home/csk/Desktop/cluster/DUD-E-result/hdac8

> <s_m_Source_File>
dock_pv.maegz

> <i_m_Source_File_Index>
102

> <chembl_id>
CHEMBL3694299

> <chembl_pref_name>
None

> <i_lp_mmshare_version>
53161

> <i_f3d_flags>
0

> <r_lp_tautomer_probability>
0.999999987636

> <s_lp_Force_Field>
OPLS_2005

> <r_lp_Energy>
27.90999

> <b_lp_Chiralities_Consistent>
1

> <s_lp_Variant>
CHEMBL3192_lig1051-1

> <s_i_glide_gridfile>
glide-grid_3f07

> <i_i_glide_lignum>
1141

> <i_i_glide_rotatable_bonds>
6

> <r_i_docking_score>
-7.96787735261648

> <r_i_glide_ligand_efficiency>
-0.284567048307732

> <r_i_glide_ligand_efficiency_sa>
-0.864113159690666

> <r_i_glide_ligand_efficiency_ln>
-1.83922004002859

> <r_i_glide_gscore>
-7.96787735261648

> <r_i_glide_lipo>
-1.32004312797586

> <r_i_glide_hbond>
-0.604048899963145

> <r_i_glide_metal>
-2.3

> <r_i_glide_rewards>
-1.1101210279053

> <r_i_glide_evdw>
-23.4735507965088

> <r_i_glide_ecoul>
-12.9950571060181

> <r_i_glide_erotb>
0.686330806018738

> <r_i_glide_esite>
-0.197058997062768

> <r_i_glide_emodel>
-55.9215293308685

> <r_i_glide_energy>
-36.4686079025269

> <r_i_glide_einternal>
1.24732649326324

> <i_i_glide_confnum>
66

> <i_i_glide_posenum>
370

> <r_i_glide_eff_state_penalty>
0

> <s_user_duplicate_titles>
CHEMBL3192_lig1051

> <s_m_subgroup_title>
dock_pv

> <s_m_subgroupid>
dock_pv

> <b_m_subgroup_collapsed>
1

$$$$
CHEMBL3192_lig817
                    3D
 Schrodinger Suite 2021-1.
 45 46  0  0  1  0            999 V2000
  -31.0130   24.5917  -37.8296 O   0  0  0  0  0  0
  -30.1736   25.6604  -37.4716 N   0  0  0  0  0  0
  -29.8130   26.5337  -38.4262 C   0  0  0  0  0  0
  -30.2427   26.4693  -39.5806 O   0  0  0  0  0  0
  -28.8988   27.6975  -37.9946 C   0  0  0  0  0  0
  -28.4474   28.6874  -39.0788 C   0  0  0  0  0  0
  -29.0130   29.9590  -39.1810 C   0  0  0  0  0  0
  -28.5507   30.8730  -40.1221 C   0  0  0  0  0  0
  -27.5031   30.5364  -40.9789 C   0  0  0  0  0  0
  -27.0862   31.5184  -42.0772 C   0  0  0  0  0  0
  -25.6006   31.9439  -42.1512 C   0  0  0  0  0  0
  -24.5711   30.8781  -42.5839 C   0  0  0  0  0  0
  -24.9274   30.0515  -43.8437 C   0  0  0  0  0  0
  -24.9914   30.8341  -45.1472 C   0  0  0  0  0  0
  -23.8124   31.2623  -45.7610 C   0  0  0  0  0  0
  -23.8645   31.9005  -46.9974 C   0  0  0  0  0  0
  -25.0959   32.1153  -47.6282 C   0  0  0  0  0  0
  -26.2754   31.7011  -47.0004 C   0  0  0  0  0  0
  -26.2228   31.0654  -45.7638 C   0  0  0  0  0  0
  -25.1575   32.7873  -48.9997 C   0  0  0  0  0  0
  -24.1060   33.5824  -49.2076 F   0  0  0  0  0  0
  -25.1630   31.8403  -49.9385 F   0  0  0  0  0  0
  -26.2645   33.5212  -49.1303 F   0  0  0  0  0  0
  -26.9317   29.2690  -40.8719 C   0  0  0  0  0  0
  -27.4121   28.3474  -39.9422 C   0  0  0  0  0  0
  -30.4288   23.8184  -37.8126 H   0  0  0  0  0  0
  -29.8792   25.6358  -36.5035 H   0  0  0  0  0  0
  -29.4130   28.2414  -37.1994 H   0  0  0  0  0  0
  -27.9890   27.2688  -37.5811 H   0  0  0  0  0  0
  -29.8130   30.2470  -38.5147 H   0  0  0  0  0  0
  -29.0130   31.8433  -40.1896 H   0  0  0  0  0  0
  -27.4125   31.1149  -43.0335 H   0  0  0  0  0  0
  -27.6630   32.4356  -41.9528 H   0  0  0  0  0  0
  -25.5298   32.7731  -42.8572 H   0  0  0  0  0  0
  -25.2993   32.3627  -41.1892 H   0  0  0  0  0  0
  -23.6084   31.3675  -42.7399 H   0  0  0  0  0  0
  -24.3989   30.2095  -41.7412 H   0  0  0  0  0  0
  -24.1835   29.2694  -43.9837 H   0  0  0  0  0  0
  -25.8590   29.5045  -43.7002 H   0  0  0  0  0  0
  -22.8540   31.0838  -45.2938 H   0  0  0  0  0  0
  -22.9428   32.2134  -47.4672 H   0  0  0  0  0  0
  -27.2344   31.8555  -47.4755 H   0  0  0  0  0  0
  -27.1410   30.7293  -45.3054 H   0  0  0  0  0  0
  -26.1480   28.9499  -41.5366 H   0  0  0  0  0  0
  -26.9802   27.3594  -39.8893 H   0  0  0  0  0  0
  1  2  1  0  0  0
  1 26  1  0  0  0
  2  3  1  0  0  0
  2 27  1  0  0  0
  3  4  2  0  0  0
  3  5  1  0  0  0
  5  6  1  0  0  0
  5 28  1  0  0  0
  5 29  1  0  0  0
  6  7  2  0  0  0
  6 25  1  0  0  0
  7  8  1  0  0  0
  7 30  1  0  0  0
  8  9  2  0  0  0
  8 31  1  0  0  0
  9 10  1  0  0  0
  9 24  1  0  0  0
 10 11  1  0  0  0
 10 32  1  0  0  0
 10 33  1  0  0  0
 11 12  1  0  0  0
 11 34  1  0  0  0
 11 35  1  0  0  0
 12 13  1  0  0  0
 12 36  1  0  0  0
 12 37  1  0  0  0
 13 14  1  0  0  0
 13 38  1  0  0  0
 13 39  1  0  0  0
 14 15  2  0  0  0
 14 19  1  0  0  0
 15 16  1  0  0  0
 15 40  1  0  0  0
 16 17  2  0  0  0
 16 41  1  0  0  0
 17 18  1  0  0  0
 17 20  1  0  0  0
 18 19  2  0  0  0
 18 42  1  0  0  0
 19 43  1  0  0  0
 20 21  1  0  0  0
 20 22  1  0  0  0
 20 23  1  0  0  0
 24 25  2  0  0  0
 24 44  1  0  0  0
 25 45  1  0  0  0
M  END
> <s_m_entry_id>
52884

> <s_m_entry_name>
dock_pv.103

> <s_m_Source_Path>
/home/csk/Desktop/cluster/DUD-E-result/hdac8

> <s_m_Source_File>
dock_pv.maegz

> <i_m_Source_File_Index>
103

> <chembl_id>
CHEMBL3698525

> <chembl_pref_name>
None

> <i_lp_mmshare_version>
53161

> <i_f3d_flags>
0

> <r_lp_tautomer_probability>
1

> <s_lp_Force_Field>
OPLS_2005

> <r_lp_Energy>
25.219527

> <b_lp_Chiralities_Consistent>
1

> <s_lp_Variant>
CHEMBL3192_lig817-1

> <s_i_glide_gridfile>
glide-grid_3f07

> <i_i_glide_lignum>
871

> <i_i_glide_rotatable_bonds>
10

> <r_i_docking_score>
-7.96353139667827

> <r_i_glide_ligand_efficiency>
-0.318541255867131

> <r_i_glide_ligand_efficiency_sa>
-0.931420281508718

> <r_i_glide_ligand_efficiency_ln>
-1.88759558879101

> <r_i_glide_gscore>
-7.96353139667827

> <r_i_glide_lipo>
-1.64418931282677

> <r_i_glide_hbond>
-0.304

> <r_i_glide_metal>
-2.3

> <r_i_glide_rewards>
-1.37798433786431

> <r_i_glide_evdw>
-23.7720928192139

> <r_i_glide_ecoul>
-15.1375589370728

> <r_i_glide_erotb>
1.23587489226998

> <r_i_glide_esite>
-0.113994156735561

> <r_i_glide_emodel>
-59.701095900661

> <r_i_glide_energy>
-38.9096517562866

> <r_i_glide_einternal>
2.92740345001221

> <i_i_glide_confnum>
45

> <i_i_glide_posenum>
38

> <r_i_glide_eff_state_penalty>
0

> <s_user_duplicate_titles>
CHEMBL3192_lig817

> <s_m_subgroup_title>
dock_pv

> <s_m_subgroupid>
dock_pv

> <b_m_subgroup_collapsed>
1

$$$$
CHEMBL3192_lig342
                    3D
 Schrodinger Suite 2021-1.
 58 59  0  0  1  0            999 V2000
  -27.4149   34.7882  -42.4277 C   0  0  0  0  0  0
  -27.1162   33.6173  -41.7509 N   0  0  0  0  0  0
  -26.6117   35.5241  -42.9973 O   0  0  0  0  0  0
  -28.7661   34.9367  -42.4310 O   0  0  0  0  0  0
  -25.7624   33.0193  -41.7297 C   0  0  1  0  0  0
  -25.5350   32.1873  -40.4302 C   0  0  0  0  0  0
  -26.5124   31.0320  -40.1556 C   0  0  0  0  0  0
  -27.5441   30.6820  -41.0345 C   0  0  0  0  0  0
  -28.4316   29.6690  -40.7075 C   0  0  0  0  0  0
  -28.2787   28.9403  -39.5321 C   0  0  0  0  0  0
  -27.2316   29.2645  -38.6610 C   0  0  0  0  0  0
  -26.3621   30.3105  -38.9680 C   0  0  0  0  0  0
  -29.1916   27.9254  -39.3282 O   0  0  0  0  0  0
  -29.1853   27.1796  -38.1078 C   0  0  0  0  0  0
  -30.2809   26.1021  -38.1831 C   0  0  0  0  0  0
  -31.0130   26.0690  -39.1810 O   0  0  0  0  0  0
  -30.4073   25.2707  -37.1343 N   0  0  0  0  0  0
  -31.4128   24.2885  -37.1808 O   0  0  0  0  0  0
  -29.4909   35.8275  -43.2980 C   0  0  0  0  0  0
  -29.1930   37.3049  -42.9547 C   0  0  0  0  0  0
  -30.9742   35.5184  -43.0154 C   0  0  0  0  0  0
  -29.2015   35.5297  -44.7905 C   0  0  0  0  0  0
  -25.3189   32.2746  -43.0286 C   0  0  0  0  0  0
  -26.1195   32.4030  -44.1104 N   0  0  0  0  0  0
  -24.2696   31.6295  -43.0061 O   0  0  0  0  0  0
  -25.9209   31.9703  -45.4313 C   0  0  0  0  0  0
  -24.6707   31.6170  -45.9625 C   0  0  0  0  0  0
  -24.5616   31.2694  -47.3062 C   0  0  0  0  0  0
  -25.6957   31.2690  -48.1158 C   0  0  0  0  0  0
  -26.9398   31.6145  -47.5946 C   0  0  0  0  0  0
  -27.0510   31.9684  -46.2532 C   0  0  0  0  0  0
  -27.8638   33.1009  -41.3174 H   0  0  0  0  0  0
  -25.0534   33.8478  -41.6535 H   0  0  0  0  0  0
  -24.5169   31.7931  -40.4082 H   0  0  0  0  0  0
  -25.6009   32.8690  -39.5810 H   0  0  0  0  0  0
  -27.6880   31.1747  -41.9810 H   0  0  0  0  0  0
  -29.2322   29.4254  -41.3886 H   0  0  0  0  0  0
  -27.0847   28.7198  -37.7420 H   0  0  0  0  0  0
  -25.5668   30.5622  -38.2804 H   0  0  0  0  0  0
  -28.2130   26.7121  -37.9810 H   0  0  0  0  0  0
  -29.4130   27.8412  -37.2699 H   0  0  0  0  0  0
  -29.8446   25.2300  -36.2943 H   0  0  0  0  0  0
  -30.9259   23.4748  -37.3652 H   0  0  0  0  0  0
  -28.1637   37.5796  -43.1857 H   0  0  0  0  0  0
  -29.8394   37.9817  -43.5144 H   0  0  0  0  0  0
  -29.3472   37.5038  -41.8936 H   0  0  0  0  0  0
  -31.2083   34.4694  -43.2021 H   0  0  0  0  0  0
  -31.2377   35.7326  -41.9810 H   0  0  0  0  0  0
  -31.6335   36.1158  -43.6469 H   0  0  0  0  0  0
  -29.3664   34.4774  -45.0250 H   0  0  0  0  0  0
  -29.8468   36.1160  -45.4459 H   0  0  0  0  0  0
  -28.1726   35.7632  -45.0648 H   0  0  0  0  0  0
  -26.9687   32.9253  -43.9657 H   0  0  0  0  0  0
  -23.7729   31.6361  -45.3640 H   0  0  0  0  0  0
  -23.5977   31.0105  -47.7193 H   0  0  0  0  0  0
  -25.6093   31.0055  -49.1594 H   0  0  0  0  0  0
  -27.8130   31.6179  -48.2309 H   0  0  0  0  0  0
  -28.0197   32.2463  -45.8627 H   0  0  0  0  0  0
  1  2  1  0  0  0
  1  3  2  0  0  0
  1  4  1  0  0  0
  2  5  1  0  0  0
  2 32  1  0  0  0
  4 19  1  0  0  0
  5 23  1  0  0  0
  5  6  1  0  0  0
  5 33  1  0  0  0
  6  7  1  0  0  0
  6 34  1  0  0  0
  6 35  1  0  0  0
  7 12  2  0  0  0
  7  8  1  0  0  0
  8  9  2  0  0  0
  8 36  1  0  0  0
  9 10  1  0  0  0
  9 37  1  0  0  0
 10 13  1  0  0  0
 10 11  2  0  0  0
 11 12  1  0  0  0
 11 38  1  0  0  0
 12 39  1  0  0  0
 13 14  1  0  0  0
 14 15  1  0  0  0
 14 40  1  0  0  0
 14 41  1  0  0  0
 15 16  2  0  0  0
 15 17  1  0  0  0
 17 18  1  0  0  0
 17 42  1  0  0  0
 18 43  1  0  0  0
 19 20  1  0  0  0
 19 22  1  0  0  0
 19 21  1  0  0  0
 20 44  1  0  0  0
 20 45  1  0  0  0
 20 46  1  0  0  0
 21 47  1  0  0  0
 21 48  1  0  0  0
 21 49  1  0  0  0
 22 50  1  0  0  0
 22 51  1  0  0  0
 22 52  1  0  0  0
 23 24  1  0  0  0
 23 25  2  0  0  0
 24 26  1  0  0  0
 24 53  1  0  0  0
 26 27  2  0  0  0
 26 31  1  0  0  0
 27 28  1  0  0  0
 27 54  1  0  0  0
 28 29  2  0  0  0
 28 55  1  0  0  0
 29 30  1  0  0  0
 29 56  1  0  0  0
 30 31  2  0  0  0
 30 57  1  0  0  0
 31 58  1  0  0  0
M  END
> <s_m_entry_id>
52885

> <s_m_entry_name>
dock_pv.104

> <s_m_Source_Path>
/home/csk/Desktop/cluster/DUD-E-result/hdac8

> <s_m_Source_File>
dock_pv.maegz

> <i_m_Source_File_Index>
104

> <chembl_id>
CHEMBL1808267

> <chembl_pref_name>
None

> <i_lp_mmshare_version>
53161

> <i_f3d_flags>
0

> <r_lp_tautomer_probability>
1

> <s_lp_Force_Field>
OPLS_2005

> <r_lp_Energy>
26.623065

> <b_lp_Chiralities_Consistent>
1

> <s_lp_Variant>
CHEMBL3192_lig342-1

> <s_i_glide_gridfile>
glide-grid_3f07

> <i_i_glide_lignum>
361

> <i_i_glide_rotatable_bonds>
14

> <r_i_docking_score>
-7.95873127398627

> <r_i_glide_ligand_efficiency>
-0.256733266902783

> <r_i_glide_ligand_efficiency_sa>
-0.806496916550471

> <r_i_glide_ligand_efficiency_ln>
-1.79493780810547

> <r_i_glide_gscore>
-7.95873127398627

> <r_i_glide_lipo>
-1.40855980662569

> <r_i_glide_hbond>
-0.435442655851926

> <r_i_glide_metal>
-2.3

> <r_i_glide_rewards>
-0.718732979961157

> <r_i_glide_evdw>
-38.0603866577148

> <r_i_glide_ecoul>
-14.9927845001221

> <r_i_glide_erotb>
1.18519931717425

> <r_i_glide_esite>
-0.129258140817692

> <r_i_glide_emodel>
-80.147279609305

> <r_i_glide_energy>
-53.0531711578369

> <r_i_glide_einternal>
9.9037618637085

> <i_i_glide_confnum>
35

> <i_i_glide_posenum>
135

> <r_i_glide_eff_state_penalty>
0

> <s_user_duplicate_titles>
CHEMBL3192_lig342

> <s_m_subgroup_title>
dock_pv

> <s_m_subgroupid>
dock_pv

> <b_m_subgroup_collapsed>
1

$$$$
CHEMBL3192_lig343
                    3D
 Schrodinger Suite 2021-1.
 43 44  0  0  1  0            999 V2000
  -26.0518   32.7498  -42.5150 N   0  0  0  0  0  0
  -25.1830   32.8179  -41.3185 C   0  0  1  0  0  0
  -25.9056   32.4972  -39.9835 C   0  0  0  0  0  0
  -26.7052   31.2024  -39.9212 C   0  0  0  0  0  0
  -26.2543   30.1483  -39.1250 C   0  0  0  0  0  0
  -27.0521   29.0237  -38.9479 C   0  0  0  0  0  0
  -28.2998   28.9409  -39.5802 C   0  0  0  0  0  0
  -28.7257   29.9794  -40.4048 C   0  0  0  0  0  0
  -27.9387   31.1133  -40.5661 C   0  0  0  0  0  0
  -29.1623   27.8766  -39.4410 O   0  0  0  0  0  0
  -29.0226   27.0306  -38.2989 C   0  0  0  0  0  0
  -30.2130   26.0690  -38.2415 C   0  0  0  0  0  0
  -31.0130   26.0690  -39.1810 O   0  0  0  0  0  0
  -23.8872   31.9853  -41.5308 C   0  0  0  0  0  0
  -23.8130   31.1777  -42.4628 O   0  0  0  0  0  0
  -21.6013   31.7045  -40.6073 C   0  0  0  0  0  0
  -20.9140   31.2690  -41.7508 C   0  0  0  0  0  0
  -19.6218   30.7638  -41.6353 C   0  0  0  0  0  0
  -19.0112   30.7093  -40.3844 C   0  0  0  0  0  0
  -19.6773   31.1649  -39.2486 C   0  0  0  0  0  0
  -20.9704   31.6690  -39.3616 C   0  0  0  0  0  0
  -30.3267   25.2826  -37.1577 N   0  0  0  0  0  0
  -31.3986   24.3759  -37.1047 O   0  0  0  0  0  0
  -22.9018   32.2340  -40.6380 N   0  0  0  0  0  0
  -25.4846   32.7764  -43.3522 H   0  0  0  0  0  0
  -26.5340   31.8622  -42.5299 H   0  0  0  0  0  0
  -24.8294   33.8479  -41.2359 H   0  0  0  0  0  0
  -25.1720   32.4690  -39.1810 H   0  0  0  0  0  0
  -26.5595   33.3271  -39.7109 H   0  0  0  0  0  0
  -25.3025   30.2108  -38.6165 H   0  0  0  0  0  0
  -26.6898   28.2298  -38.3140 H   0  0  0  0  0  0
  -29.6837   29.9157  -40.8996 H   0  0  0  0  0  0
  -28.2956   31.9315  -41.1734 H   0  0  0  0  0  0
  -28.0981   26.4690  -38.3810 H   0  0  0  0  0  0
  -29.0243   27.6348  -37.3965 H   0  0  0  0  0  0
  -21.3646   31.3182  -42.7307 H   0  0  0  0  0  0
  -19.0950   30.4208  -42.5141 H   0  0  0  0  0  0
  -18.0080   30.3189  -40.2950 H   0  0  0  0  0  0
  -19.1929   31.1301  -38.2837 H   0  0  0  0  0  0
  -21.4772   32.0267  -38.4752 H   0  0  0  0  0  0
  -29.7069   25.2175  -36.3608 H   0  0  0  0  0  0
  -30.9811   23.5230  -37.2777 H   0  0  0  0  0  0
  -23.1212   32.8559  -39.8704 H   0  0  0  0  0  0
  1  2  1  0  0  0
  1 25  1  0  0  0
  1 26  1  0  0  0
  2  3  1  0  0  0
  2 14  1  0  0  0
  2 27  1  0  0  0
  3  4  1  0  0  0
  3 28  1  0  0  0
  3 29  1  0  0  0
  4  5  1  0  0  0
  4  9  2  0  0  0
  5  6  2  0  0  0
  5 30  1  0  0  0
  6  7  1  0  0  0
  6 31  1  0  0  0
  7  8  2  0  0  0
  7 10  1  0  0  0
  8  9  1  0  0  0
  8 32  1  0  0  0
  9 33  1  0  0  0
 10 11  1  0  0  0
 11 12  1  0  0  0
 11 34  1  0  0  0
 11 35  1  0  0  0
 12 13  2  0  0  0
 12 22  1  0  0  0
 14 15  2  0  0  0
 14 24  1  0  0  0
 16 17  2  0  0  0
 16 21  1  0  0  0
 16 24  1  0  0  0
 17 18  1  0  0  0
 17 36  1  0  0  0
 18 19  2  0  0  0
 18 37  1  0  0  0
 19 20  1  0  0  0
 19 38  1  0  0  0
 20 21  2  0  0  0
 20 39  1  0  0  0
 21 40  1  0  0  0
 22 23  1  0  0  0
 22 41  1  0  0  0
 23 42  1  0  0  0
 24 43  1  0  0  0
M  END
> <s_m_entry_id>
52886

> <s_m_entry_name>
dock_pv.105

> <s_m_Source_Path>
/home/csk/Desktop/cluster/DUD-E-result/hdac8

> <s_m_Source_File>
dock_pv.maegz

> <i_m_Source_File_Index>
105

> <chembl_id>
CHEMBL1808268

> <chembl_pref_name>
None

> <i_lp_mmshare_version>
53161

> <i_f3d_flags>
0

> <r_lp_tautomer_probability>
1

> <s_lp_Force_Field>
OPLS_2005

> <r_lp_Energy>
26.547473

> <b_lp_Chiralities_Consistent>
1

> <s_lp_Variant>
CHEMBL3192_lig343-1

> <s_i_glide_gridfile>
glide-grid_3f07

> <i_i_glide_lignum>
362

> <i_i_glide_rotatable_bonds>
10

> <r_i_docking_score>
-7.95569689982675

> <r_i_glide_ligand_efficiency>
-0.331487370826115

> <r_i_glide_ligand_efficiency_sa>
-0.956175035259667

> <r_i_glide_ligand_efficiency_ln>
-1.90416333127144

> <r_i_glide_gscore>
-7.95569689982675

> <r_i_glide_lipo>
-0.852638563490954

> <r_i_glide_hbond>
-0.455970724907529

> <r_i_glide_metal>
-2.3

> <r_i_glide_rewards>
-1.32165094281751

> <r_i_glide_evdw>
-32.5481605529785

> <r_i_glide_ecoul>
-17.494068145752

> <r_i_glide_erotb>
1.38607223627147

> <r_i_glide_esite>
-0.159990655370516

> <r_i_glide_emodel>
-76.6156504234401

> <r_i_glide_energy>
-50.0422286987305

> <r_i_glide_einternal>
9.58010673522949

> <i_i_glide_confnum>
36

> <i_i_glide_posenum>
239

> <r_i_glide_eff_state_penalty>
0

> <s_user_duplicate_titles>
CHEMBL3192_lig343

> <s_m_subgroup_title>
dock_pv

> <s_m_subgroupid>
dock_pv

> <b_m_subgroup_collapsed>
1

$$$$
CHEMBL3192_lig246
                    3D
 Schrodinger Suite 2021-1.
 52 55  0  0  1  0            999 V2000
  -25.9609   32.3834  -42.9720 N   0  0  0  0  0  0
  -23.2398   32.1639  -46.1023 C   0  0  0  0  0  0
  -24.2738   33.0785  -46.2819 C   0  0  0  0  0  0
  -25.2731   33.2708  -45.3241 C   0  0  0  0  0  0
  -23.1652   31.3840  -44.9524 C   0  0  0  0  0  0
  -24.2886   30.8690  -42.8089 N   0  0  0  0  0  0
  -24.1614   31.5456  -43.9798 C   0  0  0  0  0  0
  -25.2063   32.4964  -44.1493 C   0  0  0  0  0  0
  -25.3767   31.3372  -42.2614 C   0  0  0  0  0  0
  -25.8679   30.7760  -40.9696 C   0  0  0  0  0  0
  -25.1657   31.0887  -39.8042 C   0  0  0  0  0  0
  -25.5695   30.5609  -38.5841 C   0  0  0  0  0  0
  -26.6558   29.6907  -38.5284 C   0  0  0  0  0  0
  -27.3699   29.3475  -39.6781 C   0  0  0  0  0  0
  -26.9768   29.9175  -40.9001 C   0  0  0  0  0  0
  -28.4926   28.3825  -39.6087 C   0  0  0  0  0  0
  -28.6613   27.4163  -38.6707 C   0  0  0  0  0  0
  -29.7943   26.5153  -38.6563 C   0  0  0  0  0  0
  -29.8948   25.7587  -37.5552 N   0  0  0  0  0  0
  -30.6130   26.4690  -39.5810 O   0  0  0  0  0  0
  -30.9377   24.8211  -37.4854 O   0  0  0  0  0  0
  -27.1349   33.1523  -42.4838 C   0  0  2  0  0  0
  -27.8130   34.0209  -43.5718 C   0  0  0  0  0  0
  -28.9716   34.8309  -42.9756 C   0  0  0  0  0  0
  -28.4879   35.6788  -41.7882 C   0  0  0  0  0  0
  -27.8564   34.8406  -40.7623 N   0  0  1  0  0  0
  -26.7361   34.0179  -41.2572 C   0  0  0  0  0  0
  -27.4130   35.6690  -39.6469 C   0  0  0  0  0  0
  -22.4836   32.0576  -46.8673 H   0  0  0  0  0  0
  -24.3004   33.6599  -47.1926 H   0  0  0  0  0  0
  -26.0495   33.9830  -45.5367 H   0  0  0  0  0  0
  -22.3585   30.6784  -44.8161 H   0  0  0  0  0  0
  -24.3124   31.7526  -39.8378 H   0  0  0  0  0  0
  -25.0327   30.8296  -37.6862 H   0  0  0  0  0  0
  -26.9565   29.2824  -37.5810 H   0  0  0  0  0  0
  -27.5069   29.6690  -41.8078 H   0  0  0  0  0  0
  -29.2377   28.5040  -40.3810 H   0  0  0  0  0  0
  -27.9356   27.2819  -37.8814 H   0  0  0  0  0  0
  -29.2816   25.7408  -36.7516 H   0  0  0  0  0  0
  -30.4883   23.9698  -37.5810 H   0  0  0  0  0  0
  -27.8130   32.3730  -42.1423 H   0  0  0  0  0  0
  -27.1053   34.7382  -43.9807 H   0  0  0  0  0  0
  -28.2022   33.4000  -44.3810 H   0  0  0  0  0  0
  -29.3813   35.4910  -43.7413 H   0  0  0  0  0  0
  -29.8035   34.1979  -42.6688 H   0  0  0  0  0  0
  -27.7829   36.4424  -42.1240 H   0  0  0  0  0  0
  -29.3328   36.2128  -41.3503 H   0  0  0  0  0  0
  -26.4288   33.3843  -40.4254 H   0  0  0  0  0  0
  -25.8809   34.6524  -41.5002 H   0  0  0  0  0  0
  -27.0130   35.0582  -38.8363 H   0  0  0  0  0  0
  -26.6396   36.3615  -39.9810 H   0  0  0  0  0  0
  -28.2370   36.2532  -39.2349 H   0  0  0  0  0  0
  1  8  1  0  0  0
  1  9  1  0  0  0
  1 22  1  0  0  0
  2  3  2  0  0  0
  2  5  1  0  0  0
  2 29  1  0  0  0
  3  4  1  0  0  0
  3 30  1  0  0  0
  4  8  2  0  0  0
  4 31  1  0  0  0
  5  7  2  0  0  0
  5 32  1  0  0  0
  6  7  1  0  0  0
  6  9  2  0  0  0
  7  8  1  0  0  0
  9 10  1  0  0  0
 10 15  1  0  0  0
 10 11  2  0  0  0
 11 12  1  0  0  0
 11 33  1  0  0  0
 12 13  2  0  0  0
 12 34  1  0  0  0
 13 14  1  0  0  0
 13 35  1  0  0  0
 14 15  2  0  0  0
 14 16  1  0  0  0
 15 36  1  0  0  0
 16 17  2  0  0  0
 16 37  1  0  0  0
 17 18  1  0  0  0
 17 38  1  0  0  0
 18 19  1  0  0  0
 18 20  2  0  0  0
 19 21  1  0  0  0
 19 39  1  0  0  0
 21 40  1  0  0  0
 22 23  1  0  0  0
 22 27  1  0  0  0
 22 41  1  0  0  0
 23 24  1  0  0  0
 23 42  1  0  0  0
 23 43  1  0  0  0
 24 25  1  0  0  0
 24 44  1  0  0  0
 24 45  1  0  0  0
 25 26  1  0  0  0
 25 46  1  0  0  0
 25 47  1  0  0  0
 26 27  1  0  0  0
 26 28  1  0  0  0
 27 48  1  0  0  0
 27 49  1  0  0  0
 28 50  1  0  0  0
 28 51  1  0  0  0
 28 52  1  0  0  0
M  END
> <s_m_entry_id>
52887

> <s_m_entry_name>
dock_pv.106

> <s_m_Source_Path>
/home/csk/Desktop/cluster/DUD-E-result/hdac8

> <s_m_Source_File>
dock_pv.maegz

> <i_m_Source_File_Index>
106

> <chembl_id>
CHEMBL1094158

> <chembl_pref_name>
None

> <i_lp_mmshare_version>
53161

> <i_f3d_flags>
0

> <r_lp_tautomer_probability>
1

> <s_lp_Force_Field>
OPLS_2005

> <r_lp_Energy>
39.236999

> <b_lp_Chiralities_Consistent>
1

> <s_lp_Variant>
CHEMBL3192_lig246-1

> <s_i_glide_gridfile>
glide-grid_3f07

> <i_i_glide_lignum>
257

> <i_i_glide_rotatable_bonds>
6

> <r_i_docking_score>
-7.95282195221126

> <r_i_glide_ligand_efficiency>
-0.284029355436117

> <r_i_glide_ligand_efficiency_sa>
-0.862480407448277

> <r_i_glide_ligand_efficiency_ln>
-1.8357448115693

> <r_i_glide_gscore>
-7.95282195221126

> <r_i_glide_lipo>
-0.988119556478028

> <r_i_glide_hbond>
-0.306879388934287

> <r_i_glide_metal>
-2.3

> <r_i_glide_rewards>
-1.02563567687961

> <r_i_glide_evdw>
-27.4480094909668

> <r_i_glide_ecoul>
-16.6100025177002

> <r_i_glide_erotb>
0.68298039006045

> <r_i_glide_esite>
-0.151266867776424

> <r_i_glide_emodel>
-68.5946551606753

> <r_i_glide_energy>
-44.058012008667

> <r_i_glide_einternal>
7.04158735275269

> <i_i_glide_confnum>
24

> <i_i_glide_posenum>
253

> <r_i_glide_eff_state_penalty>
0

> <s_user_duplicate_titles>
CHEMBL3192_lig246,CHEMBL3192_lig247,625568

> <s_m_subgroup_title>
dock_pv

> <s_m_subgroupid>
dock_pv

> <b_m_subgroup_collapsed>
1

$$$$
CHEMBL3192_lig228
                    3D
 Schrodinger Suite 2021-1.
 48 50  0  0  1  0            999 V2000
  -26.3521   33.2595  -46.4864 C   0  0  0  0  0  0
  -25.8466   34.4338  -45.9283 C   0  0  0  0  0  0
  -25.6147   34.5620  -44.5559 C   0  0  0  0  0  0
  -26.6427   32.1500  -45.6927 C   0  0  0  0  0  0
  -26.6130   31.3096  -43.3479 N   0  0  0  0  0  0
  -26.4168   32.2504  -44.3130 C   0  0  0  0  0  0
  -25.9182   33.4512  -43.7554 C   0  0  0  0  0  0
  -25.8463   33.2004  -42.3919 N   0  0  0  0  0  0
  -26.2663   31.8815  -42.2176 C   0  0  0  0  0  0
  -26.3550   31.1161  -40.9298 C   0  0  0  0  0  0
  -25.3823   31.2132  -39.9286 C   0  0  0  0  0  0
  -25.4960   30.4690  -38.7590 C   0  0  0  0  0  0
  -26.5575   29.5816  -38.5966 C   0  0  0  0  0  0
  -27.5115   29.4171  -39.6020 C   0  0  0  0  0  0
  -27.4057   30.2019  -40.7556 C   0  0  0  0  0  0
  -28.5942   28.4187  -39.5071 C   0  0  0  0  0  0
  -28.7048   27.4133  -38.6052 C   0  0  0  0  0  0
  -29.8131   26.4874  -38.6356 C   0  0  0  0  0  0
  -29.9377   25.7002  -37.5565 N   0  0  0  0  0  0
  -30.6130   26.4690  -39.5810 O   0  0  0  0  0  0
  -30.9933   24.7711  -37.5242 O   0  0  0  0  0  0
  -25.4258   34.1816  -41.3797 C   0  0  0  0  0  0
  -26.3560   35.4169  -41.3016 C   0  0  0  0  0  0
  -27.6677   35.1835  -40.6781 N   0  0  0  0  0  0
  -27.5400   34.8814  -39.2507 C   0  0  0  0  0  0
  -28.4495   36.4097  -40.8195 C   0  0  0  0  0  0
  -26.5183   33.2096  -47.5532 H   0  0  0  0  0  0
  -25.6289   35.2690  -46.5789 H   0  0  0  0  0  0
  -25.2181   35.4778  -44.1442 H   0  0  0  0  0  0
  -27.0320   31.2412  -46.1272 H   0  0  0  0  0  0
  -24.5150   31.8447  -40.0479 H   0  0  0  0  0  0
  -24.7464   30.5667  -37.9868 H   0  0  0  0  0  0
  -26.6172   29.0004  -37.6917 H   0  0  0  0  0  0
  -28.1383   30.0905  -41.5429 H   0  0  0  0  0  0
  -29.3656   28.5374  -40.2562 H   0  0  0  0  0  0
  -27.9680   27.2690  -37.8289 H   0  0  0  0  0  0
  -29.3408   25.6561  -36.7419 H   0  0  0  0  0  0
  -30.5456   23.9155  -37.5810 H   0  0  0  0  0  0
  -25.3414   33.7280  -40.4004 H   0  0  0  0  0  0
  -24.4151   34.4998  -41.6372 H   0  0  0  0  0  0
  -25.8340   36.2038  -40.7535 H   0  0  0  0  0  0
  -26.5000   35.8197  -42.3044 H   0  0  0  0  0  0
  -28.5178   34.7784  -38.7814 H   0  0  0  0  0  0
  -27.0130   33.9425  -39.0881 H   0  0  0  0  0  0
  -27.0129   35.6689  -38.7114 H   0  0  0  0  0  0
  -29.4130   36.3167  -40.3255 H   0  0  0  0  0  0
  -27.9383   37.2691  -40.3812 H   0  0  0  0  0  0
  -28.6401   36.6300  -41.8709 H   0  0  0  0  0  0
  1  2  2  0  0  0
  1  4  1  0  0  0
  1 27  1  0  0  0
  2  3  1  0  0  0
  2 28  1  0  0  0
  3  7  2  0  0  0
  3 29  1  0  0  0
  4  6  2  0  0  0
  4 30  1  0  0  0
  5  6  1  0  0  0
  5  9  2  0  0  0
  6  7  1  0  0  0
  7  8  1  0  0  0
  8  9  1  0  0  0
  8 22  1  0  0  0
  9 10  1  0  0  0
 10 15  1  0  0  0
 10 11  2  0  0  0
 11 12  1  0  0  0
 11 31  1  0  0  0
 12 13  2  0  0  0
 12 32  1  0  0  0
 13 14  1  0  0  0
 13 33  1  0  0  0
 14 15  2  0  0  0
 14 16  1  0  0  0
 15 34  1  0  0  0
 16 17  2  0  0  0
 16 35  1  0  0  0
 17 18  1  0  0  0
 17 36  1  0  0  0
 18 19  1  0  0  0
 18 20  2  0  0  0
 19 21  1  0  0  0
 19 37  1  0  0  0
 21 38  1  0  0  0
 22 23  1  0  0  0
 22 39  1  0  0  0
 22 40  1  0  0  0
 23 24  1  0  0  0
 23 41  1  0  0  0
 23 42  1  0  0  0
 24 25  1  0  0  0
 24 26  1  0  0  0
 25 43  1  0  0  0
 25 44  1  0  0  0
 25 45  1  0  0  0
 26 46  1  0  0  0
 26 47  1  0  0  0
 26 48  1  0  0  0
M  END
> <s_m_entry_id>
52889

> <s_m_entry_name>
dock_pv.108

> <s_m_Source_Path>
/home/csk/Desktop/cluster/DUD-E-result/hdac8

> <s_m_Source_File>
dock_pv.maegz

> <i_m_Source_File_Index>
108

> <chembl_id>
CHEMBL1095710

> <chembl_pref_name>
None

> <i_lp_mmshare_version>
53161

> <i_f3d_flags>
0

> <r_lp_tautomer_probability>
1

> <s_lp_Force_Field>
OPLS_2005

> <r_lp_Energy>
31.952905

> <b_lp_Chiralities_Consistent>
1

> <s_lp_Variant>
CHEMBL3192_lig228-1

> <s_i_glide_gridfile>
glide-grid_3f07

> <i_i_glide_lignum>
238

> <i_i_glide_rotatable_bonds>
8

> <r_i_docking_score>
-7.94732011633536

> <r_i_glide_ligand_efficiency>
-0.305666158320591

> <r_i_glide_ligand_efficiency_sa>
-0.905534791286496

> <r_i_glide_ligand_efficiency_ln>
-1.8664020520371

> <r_i_glide_gscore>
-7.94732011633536

> <r_i_glide_lipo>
-1.03162645734149

> <r_i_glide_hbond>
-0.306830353018022

> <r_i_glide_metal>
-2.3

> <r_i_glide_rewards>
-1.26154099808667

> <r_i_glide_evdw>
-27.9433135986328

> <r_i_glide_ecoul>
-16.2071647644043

> <r_i_glide_erotb>
0.931372450586804

> <r_i_glide_esite>
-0.150454363883701

> <r_i_glide_emodel>
-70.5863898035982

> <r_i_glide_energy>
-44.1504783630371

> <r_i_glide_einternal>
3.61643195152283

> <i_i_glide_confnum>
47

> <i_i_glide_posenum>
163

> <r_i_glide_eff_state_penalty>
0

> <s_user_duplicate_titles>
CHEMBL3192_lig228,626504

> <s_m_subgroup_title>
dock_pv

> <s_m_subgroupid>
dock_pv

> <b_m_subgroup_collapsed>
1

$$$$
CHEMBL3192_lig679
                    3D
 Schrodinger Suite 2021-1.
 22 22  0  0  1  0            999 V2000
  -27.3769   28.3792  -38.3810 C   0  0  0  0  0  0
  -28.5867   28.1519  -39.0389 C   0  0  0  0  0  0
  -29.0130   29.0942  -39.9810 C   0  0  0  0  0  0
  -26.6130   29.5119  -38.6610 C   0  0  0  0  0  0
  -27.0493   30.4468  -39.5956 C   0  0  0  0  0  0
  -28.2565   30.2278  -40.2636 C   0  0  0  0  0  0
  -29.4272   26.9281  -38.7438 C   0  0  0  0  0  0
  -29.4130   26.4690  -37.4896 N   0  0  0  0  0  0
  -30.2130   26.4701  -39.5810 O   0  0  0  0  0  0
  -30.2130   25.3519  -37.1739 O   0  0  0  0  0  0
  -26.2482   31.5782  -39.8190 N   0  0  0  0  0  0
  -26.6514   32.6511  -40.7171 C   0  0  0  0  0  0
  -27.0130   27.6700  -37.6526 H   0  0  0  0  0  0
  -29.9425   28.9600  -40.5136 H   0  0  0  0  0  0
  -25.6738   29.6571  -38.1482 H   0  0  0  0  0  0
  -28.6194   30.9257  -41.0017 H   0  0  0  0  0  0
  -28.8789   26.8244  -36.7009 H   0  0  0  0  0  0
  -29.5895   24.6160  -37.1581 H   0  0  0  0  0  0
  -25.5087   31.7893  -39.1583 H   0  0  0  0  0  0
  -25.8554   33.3935  -40.7862 H   0  0  0  0  0  0
  -26.8448   32.2735  -41.7220 H   0  0  0  0  0  0
  -27.5465   33.1513  -40.3469 H   0  0  0  0  0  0
  1  2  2  0  0  0
  1  4  1  0  0  0
  1 13  1  0  0  0
  2  3  1  0  0  0
  2  7  1  0  0  0
  3  6  2  0  0  0
  3 14  1  0  0  0
  4  5  2  0  0  0
  4 15  1  0  0  0
  5  6  1  0  0  0
  5 11  1  0  0  0
  6 16  1  0  0  0
  7  8  1  0  0  0
  7  9  2  0  0  0
  8 10  1  0  0  0
  8 17  1  0  0  0
 10 18  1  0  0  0
 11 12  1  0  0  0
 11 19  1  0  0  0
 12 20  1  0  0  0
 12 21  1  0  0  0
 12 22  1  0  0  0
M  END
> <s_m_entry_id>
52890

> <s_m_entry_name>
dock_pv.109

> <s_m_Source_Path>
/home/csk/Desktop/cluster/DUD-E-result/hdac8

> <s_m_Source_File>
dock_pv.maegz

> <i_m_Source_File_Index>
109

> <chembl_id>
CHEMBL3415449

> <chembl_pref_name>
None

> <i_lp_mmshare_version>
53161

> <i_f3d_flags>
0

> <r_lp_tautomer_probability>
1

> <s_lp_Force_Field>
OPLS_2005

> <r_lp_Energy>
17.694053

> <b_lp_Chiralities_Consistent>
1

> <s_lp_Variant>
CHEMBL3192_lig679-1

> <s_i_glide_gridfile>
glide-grid_3f07

> <i_i_glide_lignum>
709

> <i_i_glide_rotatable_bonds>
4

> <r_i_docking_score>
-7.9468135681387

> <r_i_glide_ligand_efficiency>
-0.662234464011558

> <r_i_glide_ligand_efficiency_sa>
-1.51613844447158

> <r_i_glide_ligand_efficiency_ln>
-2.28035191950468

> <r_i_glide_gscore>
-7.9468135681387

> <r_i_glide_lipo>
-0.863871385900196

> <r_i_glide_hbond>
-0.606322048775861

> <r_i_glide_metal>
-2.3

> <r_i_glide_rewards>
-2.46575200605292

> <r_i_glide_evdw>
-11.3647537231445

> <r_i_glide_ecoul>
-13.4146757125854

> <r_i_glide_erotb>
1.1077806903005

> <r_i_glide_esite>
-0.238209774665175

> <r_i_glide_emodel>
-41.3120546555435

> <r_i_glide_energy>
-24.77942943573

> <r_i_glide_einternal>
1.52543425559998

> <i_i_glide_confnum>
3

> <i_i_glide_posenum>
327

> <r_i_glide_eff_state_penalty>
0

> <s_user_duplicate_titles>
CHEMBL3192_lig679

> <s_m_subgroup_title>
dock_pv

> <s_m_subgroupid>
dock_pv

> <b_m_subgroup_collapsed>
1

$$$$
CHEMBL3192_lig232
                    3D
 Schrodinger Suite 2021-1.
 52 55  0  0  1  0            999 V2000
  -20.2310   31.4217  -38.7131 C   0  0  0  0  0  0
  -20.2220   32.2218  -39.8550 C   0  0  0  0  0  0
  -21.3914   32.5145  -40.5616 C   0  0  0  0  0  0
  -21.4171   30.8690  -38.2302 C   0  0  0  0  0  0
  -23.8640   30.6755  -38.6792 N   0  0  0  0  0  0
  -22.6033   31.1296  -38.9314 C   0  0  0  0  0  0
  -22.5837   31.9578  -40.0742 C   0  0  0  0  0  0
  -23.9093   32.0367  -40.4745 N   0  0  0  0  0  0
  -24.6322   31.2037  -39.6068 C   0  0  0  0  0  0
  -26.1022   30.8454  -39.6578 C   0  0  0  0  0  0
  -27.0780   31.6942  -40.1930 C   0  0  0  0  0  0
  -28.3981   31.2809  -40.3218 C   0  0  0  0  0  0
  -28.7929   30.0479  -39.8250 C   0  0  0  0  0  0
  -27.8739   29.2149  -39.1791 C   0  0  0  0  0  0
  -26.5333   29.6156  -39.1233 C   0  0  0  0  0  0
  -28.3283   27.9760  -38.5126 C   0  0  0  0  0  0
  -29.4130   27.2690  -38.9006 C   0  0  0  0  0  0
  -30.0115   26.1751  -38.1722 C   0  0  0  0  0  0
  -30.0089   26.2947  -36.8339 N   0  0  0  0  0  0
  -30.5786   25.2690  -38.7810 O   0  0  0  0  0  0
  -30.6223   25.2877  -36.0774 O   0  0  0  0  0  0
  -24.3454   32.8033  -41.6570 C   0  0  0  0  0  0
  -24.4619   31.9898  -42.9733 C   0  0  0  0  0  0
  -23.1056   31.4983  -43.5092 C   0  0  0  0  0  0
  -23.2533   30.7763  -44.8635 C   0  0  0  0  0  0
  -24.2130   29.6690  -44.7810 N   0  0  1  0  0  0
  -25.5293   30.0672  -44.2855 C   0  0  0  0  0  0
  -25.4180   30.7810  -42.9270 C   0  0  0  0  0  0
  -19.3038   31.2310  -38.1921 H   0  0  0  0  0  0
  -19.2836   32.6365  -40.1942 H   0  0  0  0  0  0
  -21.3666   33.1512  -41.4324 H   0  0  0  0  0  0
  -21.4215   30.2472  -37.3480 H   0  0  0  0  0  0
  -26.8510   32.6897  -40.5174 H   0  0  0  0  0  0
  -29.1216   31.9334  -40.7810 H   0  0  0  0  0  0
  -29.8336   29.7773  -39.8979 H   0  0  0  0  0  0
  -25.8131   28.9609  -38.6534 H   0  0  0  0  0  0
  -27.7759   27.6863  -37.6288 H   0  0  0  0  0  0
  -29.9129   27.5235  -39.8216 H   0  0  0  0  0  0
  -29.5409   26.9970  -36.2697 H   0  0  0  0  0  0
  -29.8842   24.8252  -35.6696 H   0  0  0  0  0  0
  -25.2550   33.3454  -41.4418 H   0  0  0  0  0  0
  -23.6379   33.6214  -41.7989 H   0  0  0  0  0  0
  -24.8615   32.6633  -43.7343 H   0  0  0  0  0  0
  -22.4366   32.3504  -43.6337 H   0  0  0  0  0  0
  -22.5889   30.8690  -42.7868 H   0  0  0  0  0  0
  -23.5867   31.4772  -45.6307 H   0  0  0  0  0  0
  -22.2825   30.3970  -45.1810 H   0  0  0  0  0  0
  -24.3192   29.2137  -45.6783 H   0  0  0  0  0  0
  -26.0071   30.7172  -45.0205 H   0  0  0  0  0  0
  -26.1492   29.1750  -44.1915 H   0  0  0  0  0  0
  -25.1306   30.0690  -42.1540 H   0  0  0  0  0  0
  -26.4120   31.1169  -42.6408 H   0  0  0  0  0  0
  1  2  2  0  0  0
  1  4  1  0  0  0
  1 29  1  0  0  0
  2  3  1  0  0  0
  2 30  1  0  0  0
  3  7  2  0  0  0
  3 31  1  0  0  0
  4  6  2  0  0  0
  4 32  1  0  0  0
  5  6  1  0  0  0
  5  9  2  0  0  0
  6  7  1  0  0  0
  7  8  1  0  0  0
  8  9  1  0  0  0
  8 22  1  0  0  0
  9 10  1  0  0  0
 10 15  1  0  0  0
 10 11  2  0  0  0
 11 12  1  0  0  0
 11 33  1  0  0  0
 12 13  2  0  0  0
 12 34  1  0  0  0
 13 14  1  0  0  0
 13 35  1  0  0  0
 14 15  2  0  0  0
 14 16  1  0  0  0
 15 36  1  0  0  0
 16 17  2  0  0  0
 16 37  1  0  0  0
 17 18  1  0  0  0
 17 38  1  0  0  0
 18 19  1  0  0  0
 18 20  2  0  0  0
 19 21  1  0  0  0
 19 39  1  0  0  0
 21 40  1  0  0  0
 22 23  1  0  0  0
 22 41  1  0  0  0
 22 42  1  0  0  0
 23 24  1  0  0  0
 23 28  1  0  0  0
 23 43  1  0  0  0
 24 25  1  0  0  0
 24 44  1  0  0  0
 24 45  1  0  0  0
 25 26  1  0  0  0
 25 46  1  0  0  0
 25 47  1  0  0  0
 26 27  1  0  0  0
 26 48  1  0  0  0
 27 28  1  0  0  0
 27 49  1  0  0  0
 27 50  1  0  0  0
 28 51  1  0  0  0
 28 52  1  0  0  0
M  END
> <s_m_entry_id>
52891

> <s_m_entry_name>
dock_pv.110

> <s_m_Source_Path>
/home/csk/Desktop/cluster/DUD-E-result/hdac8

> <s_m_Source_File>
dock_pv.maegz

> <i_m_Source_File_Index>
110

> <chembl_id>
CHEMBL1095076

> <chembl_pref_name>
None

> <i_lp_mmshare_version>
53161

> <i_f3d_flags>
0

> <r_lp_tautomer_probability>
1

> <s_lp_Force_Field>
OPLS_2005

> <r_lp_Energy>
37.368341

> <b_lp_Chiralities_Consistent>
1

> <s_lp_Variant>
CHEMBL3192_lig232-1

> <s_i_glide_gridfile>
glide-grid_3f07

> <i_i_glide_lignum>
242

> <i_i_glide_rotatable_bonds>
7

> <r_i_docking_score>
-7.93989502847431

> <r_i_glide_ligand_efficiency>
-0.283567679588368

> <r_i_glide_ligand_efficiency_sa>
-0.861078487661981

> <r_i_glide_ligand_efficiency_ln>
-1.83276089801984

> <r_i_glide_gscore>
-7.93989502847431

> <r_i_glide_lipo>
-1.24311365388026

> <r_i_glide_hbond>
-0.577045269320205

> <r_i_glide_metal>
-2.3

> <r_i_glide_rewards>
-1.09391892653959

> <r_i_glide_evdw>
-37.3151550292969

> <r_i_glide_ecoul>
-10.1204395294189

> <r_i_glide_erotb>
0.81957646807254

> <r_i_glide_esite>
-0.161569965929104

> <r_i_glide_emodel>
-72.123202550135

> <r_i_glide_energy>
-47.4355945587158

> <r_i_glide_einternal>
7.77019071578979

> <i_i_glide_confnum>
72

> <i_i_glide_posenum>
93

> <r_i_glide_eff_state_penalty>
0

> <s_user_duplicate_titles>
CHEMBL3192_lig232,626572

> <s_m_subgroup_title>
dock_pv

> <s_m_subgroupid>
dock_pv

> <b_m_subgroup_collapsed>
1

$$$$
CHEMBL3192_lig926
                    3D
 Schrodinger Suite 2021-1.
 45 46  0  0  1  0            999 V2000
  -28.4948   33.0514  -47.7206 C   0  0  0  0  0  0
  -27.4130   32.0690  -47.6160 N   0  0  0  0  0  0
  -26.9310   31.5049  -48.8770 C   0  0  0  0  0  0
  -26.6107   32.0046  -46.4434 C   0  0  0  0  0  0
  -27.0289   32.6061  -45.2478 C   0  0  0  0  0  0
  -26.2418   32.5572  -44.1024 C   0  0  0  0  0  0
  -25.0033   31.9019  -44.1124 C   0  0  0  0  0  0
  -24.0902   31.9008  -42.8958 C   0  0  0  0  0  0
  -24.6126   32.1537  -41.6632 N   0  0  0  0  0  0
  -23.8451   32.9783  -40.7043 C   0  0  0  0  0  0
  -25.7656   31.4908  -41.2969 N   0  0  0  0  0  0
  -25.7800   30.8966  -40.1647 C   0  0  0  0  0  0
  -26.8436   29.9834  -39.7396 C   0  0  0  0  0  0
  -26.5672   29.0762  -38.7197 C   0  0  0  0  0  0
  -27.4632   28.0690  -38.3810 C   0  0  0  0  0  0
  -28.6986   27.9831  -39.0154 C   0  0  0  0  0  0
  -29.6746   26.8690  -38.6984 C   0  0  0  0  0  0
  -29.7675   26.4690  -37.4196 N   0  0  0  0  0  0
  -30.6130   25.3860  -37.1196 O   0  0  0  0  0  0
  -30.4410   26.4690  -39.5810 O   0  0  0  0  0  0
  -29.0131   28.9490  -39.9810 C   0  0  0  0  0  0
  -28.0965   29.9286  -40.3548 C   0  0  0  0  0  0
  -22.8841   31.6859  -43.0507 O   0  0  0  0  0  0
  -24.5784   31.2980  -45.3012 C   0  0  0  0  0  0
  -25.3741   31.3407  -46.4430 C   0  0  0  0  0  0
  -29.1835   32.9949  -46.8797 H   0  0  0  0  0  0
  -29.0838   32.9148  -48.6286 H   0  0  0  0  0  0
  -28.0828   34.0611  -47.7370 H   0  0  0  0  0  0
  -26.6373   30.4624  -48.7517 H   0  0  0  0  0  0
  -27.6899   31.5430  -49.6600 H   0  0  0  0  0  0
  -26.0589   32.0573  -49.2289 H   0  0  0  0  0  0
  -27.9680   33.1300  -45.1801 H   0  0  0  0  0  0
  -26.6019   33.0622  -43.2178 H   0  0  0  0  0  0
  -23.3048   33.7864  -41.2015 H   0  0  0  0  0  0
  -24.5067   33.4550  -39.9810 H   0  0  0  0  0  0
  -23.1171   32.3757  -40.1593 H   0  0  0  0  0  0
  -24.9645   30.9918  -39.4502 H   0  0  0  0  0  0
  -25.6066   29.0925  -38.2241 H   0  0  0  0  0  0
  -27.1762   27.3479  -37.6288 H   0  0  0  0  0  0
  -29.2095   26.7836  -36.6316 H   0  0  0  0  0  0
  -30.0085   24.6483  -36.9803 H   0  0  0  0  0  0
  -29.9637   28.9282  -40.4926 H   0  0  0  0  0  0
  -28.3517   30.6184  -41.1471 H   0  0  0  0  0  0
  -23.6208   30.7987  -45.3541 H   0  0  0  0  0  0
  -24.9925   30.8690  -47.3336 H   0  0  0  0  0  0
  1  2  1  0  0  0
  1 26  1  0  0  0
  1 27  1  0  0  0
  1 28  1  0  0  0
  2  3  1  0  0  0
  2  4  1  0  0  0
  3 29  1  0  0  0
  3 30  1  0  0  0
  3 31  1  0  0  0
  4  5  2  0  0  0
  4 25  1  0  0  0
  5  6  1  0  0  0
  5 32  1  0  0  0
  6  7  2  0  0  0
  6 33  1  0  0  0
  7  8  1  0  0  0
  7 24  1  0  0  0
  8  9  1  0  0  0
  8 23  2  0  0  0
  9 10  1  0  0  0
  9 11  1  0  0  0
 10 34  1  0  0  0
 10 35  1  0  0  0
 10 36  1  0  0  0
 11 12  2  0  0  0
 12 13  1  0  0  0
 12 37  1  0  0  0
 13 14  2  0  0  0
 13 22  1  0  0  0
 14 15  1  0  0  0
 14 38  1  0  0  0
 15 16  2  0  0  0
 15 39  1  0  0  0
 16 17  1  0  0  0
 16 21  1  0  0  0
 17 18  1  0  0  0
 17 20  2  0  0  0
 18 19  1  0  0  0
 18 40  1  0  0  0
 19 41  1  0  0  0
 21 22  2  0  0  0
 21 42  1  0  0  0
 22 43  1  0  0  0
 24 25  2  0  0  0
 24 44  1  0  0  0
 25 45  1  0  0  0
M  END
> <s_m_entry_id>
52892

> <s_m_entry_name>
dock_pv.111

> <s_m_Source_Path>
/home/csk/Desktop/cluster/DUD-E-result/hdac8

> <s_m_Source_File>
dock_pv.maegz

> <i_m_Source_File_Index>
111

> <chembl_id>
CHEMBL3763388

> <chembl_pref_name>
None

> <i_lp_mmshare_version>
53161

> <i_f3d_flags>
0

> <r_lp_tautomer_probability>
1

> <s_lp_Force_Field>
OPLS_2005

> <r_lp_Energy>
44.595085

> <b_lp_Chiralities_Consistent>
1

> <s_lp_Variant>
CHEMBL3192_lig926-1

> <s_i_glide_gridfile>
glide-grid_3f07

> <i_i_glide_lignum>
987

> <i_i_glide_rotatable_bonds>
8

> <r_i_docking_score>
-7.93698368003163

> <r_i_glide_ligand_efficiency>
-0.317479347201265

> <r_i_glide_ligand_efficiency_sa>
-0.928315241736697

> <r_i_glide_ligand_efficiency_ln>
-1.88130298437489

> <r_i_glide_gscore>
-7.93698368003163

> <r_i_glide_lipo>
-1.32128393689114

> <r_i_glide_hbond>
-0.608

> <r_i_glide_metal>
-2.3

> <r_i_glide_rewards>
-1.34025167392707

> <r_i_glide_evdw>
-25.2381725311279

> <r_i_glide_ecoul>
-12.5562314987183

> <r_i_glide_erotb>
0.980694765511703

> <r_i_glide_esite>
-0.202799483360988

> <r_i_glide_emodel>
-52.2503910136065

> <r_i_glide_energy>
-37.7944040298462

> <r_i_glide_einternal>
13.9294986724854

> <i_i_glide_confnum>
25

> <i_i_glide_posenum>
359

> <r_i_glide_eff_state_penalty>
0

> <s_user_duplicate_titles>
CHEMBL3192_lig926

> <s_m_subgroup_title>
dock_pv

> <s_m_subgroupid>
dock_pv

> <b_m_subgroup_collapsed>
1

$$$$
CHEMBL3192_lig237
                    3D
 Schrodinger Suite 2021-1.
 48 51  0  0  1  0            999 V2000
  -26.5806   33.4749  -42.3415 C   0  0  0  0  0  0
  -27.6384   34.1608  -42.9464 C   0  0  0  0  0  0
  -28.3635   35.0969  -42.2136 C   0  0  0  0  0  0
  -28.0381   35.3523  -40.8818 C   0  0  0  0  0  0
  -26.9260   34.7226  -40.3118 C   0  0  0  0  0  0
  -26.1900   33.8060  -41.0438 C   0  0  0  0  0  0
  -25.8825   32.4743  -43.0522 N   0  0  0  0  0  0
  -24.2962   32.0052  -46.8291 C   0  0  0  0  0  0
  -24.8770   33.2469  -46.5753 C   0  0  0  0  0  0
  -25.4565   33.5542  -45.3416 C   0  0  0  0  0  0
  -24.2710   31.0086  -45.8539 C   0  0  0  0  0  0
  -24.9531   30.4688  -43.5169 N   0  0  0  0  0  0
  -24.8518   31.2819  -44.6089 C   0  0  0  0  0  0
  -25.4366   32.5481  -44.3637 C   0  0  0  0  0  0
  -25.5641   31.1914  -42.6110 C   0  0  0  0  0  0
  -25.8976   30.6354  -41.2642 C   0  0  0  0  0  0
  -25.0464   30.8691  -40.1804 C   0  0  0  0  0  0
  -25.3732   30.3927  -38.9139 C   0  0  0  0  0  0
  -26.5204   29.6215  -38.7371 C   0  0  0  0  0  0
  -27.3569   29.3204  -39.8161 C   0  0  0  0  0  0
  -27.0496   29.8622  -41.0735 C   0  0  0  0  0  0
  -28.5057   28.4016  -39.6672 C   0  0  0  0  0  0
  -28.6279   27.4245  -38.7366 C   0  0  0  0  0  0
  -29.7626   26.5295  -38.6826 C   0  0  0  0  0  0
  -29.8135   25.7785  -37.5767 N   0  0  0  0  0  0
  -30.6126   26.4690  -39.5809 O   0  0  0  0  0  0
  -30.8567   24.8491  -37.4568 O   0  0  0  0  0  0
  -28.8654   36.2053  -40.1844 O   0  0  0  0  0  0
  -28.8156   36.1643  -38.7606 C   0  0  0  0  0  0
  -27.9325   33.9413  -43.9629 H   0  0  0  0  0  0
  -29.2037   35.6016  -42.6684 H   0  0  0  0  0  0
  -26.6131   34.9194  -39.2971 H   0  0  0  0  0  0
  -25.3251   33.3631  -40.5778 H   0  0  0  0  0  0
  -23.8523   31.8175  -47.7964 H   0  0  0  0  0  0
  -24.8693   33.9959  -47.3546 H   0  0  0  0  0  0
  -25.8846   34.5283  -45.1570 H   0  0  0  0  0  0
  -23.8131   30.0554  -46.0526 H   0  0  0  0  0  0
  -24.1400   31.4435  -40.3102 H   0  0  0  0  0  0
  -24.7240   30.6047  -38.0765 H   0  0  0  0  0  0
  -26.7458   29.2385  -37.7541 H   0  0  0  0  0  0
  -27.6916   29.6680  -41.9202 H   0  0  0  0  0  0
  -29.3019   28.5549  -40.3809 H   0  0  0  0  0  0
  -27.8589   27.2694  -37.9907 H   0  0  0  0  0  0
  -29.1718   25.7693  -36.7958 H   0  0  0  0  0  0
  -30.4202   23.9944  -37.5808 H   0  0  0  0  0  0
  -29.5624   36.8438  -38.3499 H   0  0  0  0  0  0
  -29.0130   35.1634  -38.3811 H   0  0  0  0  0  0
  -27.8475   36.4689  -38.3695 H   0  0  0  0  0  0
  1  6  1  0  0  0
  1  2  2  0  0  0
  1  7  1  0  0  0
  2  3  1  0  0  0
  2 30  1  0  0  0
  3  4  2  0  0  0
  3 31  1  0  0  0
  4  5  1  0  0  0
  4 28  1  0  0  0
  5  6  2  0  0  0
  5 32  1  0  0  0
  6 33  1  0  0  0
  7 14  1  0  0  0
  7 15  1  0  0  0
  8  9  2  0  0  0
  8 11  1  0  0  0
  8 34  1  0  0  0
  9 10  1  0  0  0
  9 35  1  0  0  0
 10 14  2  0  0  0
 10 36  1  0  0  0
 11 13  2  0  0  0
 11 37  1  0  0  0
 12 13  1  0  0  0
 12 15  2  0  0  0
 13 14  1  0  0  0
 15 16  1  0  0  0
 16 17  2  0  0  0
 16 21  1  0  0  0
 17 18  1  0  0  0
 17 38  1  0  0  0
 18 19  2  0  0  0
 18 39  1  0  0  0
 19 20  1  0  0  0
 19 40  1  0  0  0
 20 21  2  0  0  0
 20 22  1  0  0  0
 21 41  1  0  0  0
 22 23  2  0  0  0
 22 42  1  0  0  0
 23 24  1  0  0  0
 23 43  1  0  0  0
 24 25  1  0  0  0
 24 26  2  0  0  0
 25 27  1  0  0  0
 25 44  1  0  0  0
 27 45  1  0  0  0
 28 29  1  0  0  0
 29 46  1  0  0  0
 29 47  1  0  0  0
 29 48  1  0  0  0
M  END
> <s_m_entry_id>
52893

> <s_m_entry_name>
dock_pv.112

> <s_m_Source_Path>
/home/csk/Desktop/cluster/DUD-E-result/hdac8

> <s_m_Source_File>
dock_pv.maegz

> <i_m_Source_File_Index>
112

> <chembl_id>
CHEMBL1099095

> <chembl_pref_name>
None

> <i_lp_mmshare_version>
53161

> <i_f3d_flags>
0

> <r_lp_tautomer_probability>
1

> <s_lp_Force_Field>
OPLS_2005

> <r_lp_Energy>
35.949697

> <b_lp_Chiralities_Consistent>
1

> <s_lp_Variant>
CHEMBL3192_lig237-1

> <s_i_glide_gridfile>
glide-grid_3f07

> <i_i_glide_lignum>
247

> <i_i_glide_rotatable_bonds>
7

> <r_i_docking_score>
-7.93437920031025

> <r_i_glide_ligand_efficiency>
-0.273599282769319

> <r_i_glide_ligand_efficiency_sa>
-0.84058367900426

> <r_i_glide_ligand_efficiency_ln>
-1.81677163837441

> <r_i_glide_gscore>
-7.93437920031025

> <r_i_glide_lipo>
-1.19324153516498

> <r_i_glide_hbond>
-0.305894562666366

> <r_i_glide_metal>
-2.3

> <r_i_glide_rewards>
-0.930547507079097

> <r_i_glide_evdw>
-28.6843128204346

> <r_i_glide_ecoul>
-15.1015310287476

> <r_i_glide_erotb>
0.654777515367517

> <r_i_glide_esite>
-0.160027815433458

> <r_i_glide_emodel>
-68.2185381815494

> <r_i_glide_energy>
-43.7858438491821

> <r_i_glide_einternal>
7.77217483520508

> <i_i_glide_confnum>
11

> <i_i_glide_posenum>
244

> <r_i_glide_eff_state_penalty>
0

> <s_user_duplicate_titles>
CHEMBL3192_lig237

> <s_m_subgroup_title>
dock_pv

> <s_m_subgroupid>
dock_pv

> <b_m_subgroup_collapsed>
1

$$$$
CHEMBL3192_lig1079
                    3D
 Schrodinger Suite 2021-1.
 40 42  0  0  1  0            999 V2000
  -30.2130   25.9147  -37.0712 O   0  0  0  0  0  0
  -29.3079   26.8690  -37.5810 N   0  0  0  0  0  0
  -29.4130   27.2433  -38.8459 C   0  0  0  0  0  0
  -30.2445   26.7146  -39.5810 O   0  0  0  0  0  0
  -28.5948   28.4313  -39.3047 C   0  0  0  0  0  0
  -29.1122   29.2690  -40.2975 C   0  0  0  0  0  0
  -28.3757   30.3347  -40.7874 C   0  0  0  0  0  0
  -27.0938   30.5806  -40.3197 C   0  0  0  0  0  0
  -26.3617   31.6129  -40.9362 N   0  0  0  0  0  0
  -25.0945   32.0542  -40.3497 C   0  0  0  0  0  0
  -24.2979   30.8787  -39.7375 C   0  0  2  0  0  0
  -25.1907   30.1514  -38.7118 C   0  0  0  0  0  0
  -26.5658   29.8096  -39.2694 C   0  0  0  0  0  0
  -27.3259   28.7317  -38.7810 C   0  0  0  0  0  0
  -23.0063   31.2690  -39.1732 N   0  0  0  0  0  0
  -21.8488   31.3883  -39.8455 C   0  0  0  0  0  0
  -21.7650   31.2690  -41.0681 O   0  0  0  0  0  0
  -20.6256   31.6690  -39.0051 C   0  0  0  0  0  0
  -19.5166   32.3133  -39.5727 C   0  0  0  0  0  0
  -18.3771   32.5728  -38.8102 C   0  0  0  0  0  0
  -18.3293   32.1870  -37.4713 C   0  0  0  0  0  0
  -19.4196   31.5375  -36.8948 C   0  0  0  0  0  0
  -19.3625   31.0555  -35.2387 Cl  0  0  0  0  0  0
  -20.5581   31.2754  -37.6566 C   0  0  0  0  0  0
  -30.7668   26.4196  -36.4676 H   0  0  0  0  0  0
  -28.7064   27.2690  -36.8626 H   0  0  0  0  0  0
  -30.0909   29.0959  -40.7209 H   0  0  0  0  0  0
  -28.7885   30.9316  -41.5810 H   0  0  0  0  0  0
  -26.8460   32.3208  -41.4682 H   0  0  0  0  0  0
  -25.3208   32.7939  -39.5810 H   0  0  0  0  0  0
  -24.5078   32.5770  -41.1061 H   0  0  0  0  0  0
  -24.1092   30.1666  -40.5458 H   0  0  0  0  0  0
  -24.6647   29.2905  -38.2977 H   0  0  0  0  0  0
  -25.2818   30.7911  -37.8327 H   0  0  0  0  0  0
  -26.9075   28.1154  -37.9977 H   0  0  0  0  0  0
  -23.0377   31.7594  -38.2891 H   0  0  0  0  0  0
  -19.5335   32.6221  -40.6090 H   0  0  0  0  0  0
  -17.5316   33.0743  -39.2575 H   0  0  0  0  0  0
  -17.4471   32.3901  -36.8820 H   0  0  0  0  0  0
  -21.3849   30.7640  -37.1847 H   0  0  0  0  0  0
  1  2  1  0  0  0
  1 25  1  0  0  0
  2  3  1  0  0  0
  2 26  1  0  0  0
  3  4  2  0  0  0
  3  5  1  0  0  0
  5  6  2  0  0  0
  5 14  1  0  0  0
  6  7  1  0  0  0
  6 27  1  0  0  0
  7  8  2  0  0  0
  7 28  1  0  0  0
  8  9  1  0  0  0
  8 13  1  0  0  0
  9 10  1  0  0  0
  9 29  1  0  0  0
 10 11  1  0  0  0
 10 30  1  0  0  0
 10 31  1  0  0  0
 11 12  1  0  0  0
 11 15  1  0  0  0
 11 32  1  0  0  0
 12 13  1  0  0  0
 12 33  1  0  0  0
 12 34  1  0  0  0
 13 14  2  0  0  0
 14 35  1  0  0  0
 15 16  1  0  0  0
 15 36  1  0  0  0
 16 17  2  0  0  0
 16 18  1  0  0  0
 18 19  2  0  0  0
 18 24  1  0  0  0
 19 20  1  0  0  0
 19 37  1  0  0  0
 20 21  2  0  0  0
 20 38  1  0  0  0
 21 22  1  0  0  0
 21 39  1  0  0  0
 22 23  1  0  0  0
 22 24  2  0  0  0
 24 40  1  0  0  0
M  END
> <s_m_entry_id>
52894

> <s_m_entry_name>
dock_pv.113

> <s_m_Source_Path>
/home/csk/Desktop/cluster/DUD-E-result/hdac8

> <s_m_Source_File>
dock_pv.maegz

> <i_m_Source_File_Index>
113

> <chembl_id>
CHEMBL3694324

> <chembl_pref_name>
None

> <i_lp_mmshare_version>
53161

> <i_f3d_flags>
0

> <r_lp_tautomer_probability>
1

> <s_lp_Force_Field>
OPLS_2005

> <r_lp_Energy>
31.001013

> <b_lp_Chiralities_Consistent>
1

> <s_lp_Variant>
CHEMBL3192_lig1079-1

> <s_i_glide_gridfile>
glide-grid_3f07

> <i_i_glide_lignum>
1197

> <i_i_glide_rotatable_bonds>
6

> <r_i_docking_score>
-7.93014210927067

> <r_i_glide_ligand_efficiency>
-0.330422587886278

> <r_i_glide_ligand_efficiency_sa>
-0.953103669788021

> <r_i_glide_ligand_efficiency_ln>
-1.89804689725844

> <r_i_glide_gscore>
-7.93014210927067

> <r_i_glide_lipo>
-1.15811605732201

> <r_i_glide_hbond>
-0.629885589823503

> <r_i_glide_metal>
-2.3

> <r_i_glide_rewards>
-1.3093546022592

> <r_i_glide_evdw>
-21.0846672058105

> <r_i_glide_ecoul>
-13.2369556427002

> <r_i_glide_erotb>
0.794722982789739

> <r_i_glide_esite>
-0.287732135960146

> <r_i_glide_emodel>
-51.8935416658135

> <r_i_glide_energy>
-34.3216228485107

> <r_i_glide_einternal>
2.64347624778748

> <i_i_glide_confnum>
49

> <i_i_glide_posenum>
366

> <r_i_glide_eff_state_penalty>
0

> <s_user_duplicate_titles>
CHEMBL3192_lig1079

> <s_m_subgroup_title>
dock_pv

> <s_m_subgroupid>
dock_pv

> <b_m_subgroup_collapsed>
1

$$$$
CHEMBL3192_lig227
                    3D
 Schrodinger Suite 2021-1.
 50 53  0  0  1  0            999 V2000
  -24.0836   31.8180  -46.4123 C   0  0  0  0  0  0
  -23.8861   33.1335  -46.0038 C   0  0  0  0  0  0
  -24.2032   33.5668  -44.7139 C   0  0  0  0  0  0
  -24.6037   30.8690  -45.5375 C   0  0  0  0  0  0
  -25.4130   30.5006  -43.2323 N   0  0  0  0  0  0
  -24.9240   31.2731  -44.2360 C   0  0  0  0  0  0
  -24.7403   32.6199  -43.8211 C   0  0  0  0  0  0
  -25.1911   32.6354  -42.4942 N   0  0  0  0  0  0
  -25.5014   31.3009  -42.2012 C   0  0  0  0  0  0
  -25.9111   30.7456  -40.8718 C   0  0  0  0  0  0
  -25.2158   31.0649  -39.7007 C   0  0  0  0  0  0
  -25.6230   30.5480  -38.4772 C   0  0  0  0  0  0
  -26.7009   29.6690  -38.4177 C   0  0  0  0  0  0
  -27.3843   29.2942  -39.5747 C   0  0  0  0  0  0
  -26.9847   29.8466  -40.7961 C   0  0  0  0  0  0
  -28.4921   28.3229  -39.5368 C   0  0  0  0  0  0
  -28.6935   27.3756  -38.5889 C   0  0  0  0  0  0
  -29.8174   26.4690  -38.6324 C   0  0  0  0  0  0
  -29.9555   25.6776  -37.5574 N   0  0  0  0  0  0
  -30.6130   26.4690  -39.5810 O   0  0  0  0  0  0
  -31.0122   24.7506  -37.5362 O   0  0  0  0  0  0
  -25.3103   33.7808  -41.5418 C   0  0  0  0  0  0
  -24.7600   35.1596  -41.9826 C   0  0  0  0  0  0
  -25.7476   35.9665  -42.8608 C   0  0  0  0  0  0
  -27.1395   36.0763  -42.2097 C   0  0  0  0  0  0
  -27.7002   34.6939  -41.8240 C   0  0  0  0  0  0
  -26.7219   33.9332  -40.9105 C   0  0  0  0  0  0
  -23.8218   31.5314  -47.4207 H   0  0  0  0  0  0
  -23.4709   33.8407  -46.7079 H   0  0  0  0  0  0
  -24.0122   34.5929  -44.4558 H   0  0  0  0  0  0
  -24.7495   29.8464  -45.8473 H   0  0  0  0  0  0
  -24.3474   31.7046  -39.7162 H   0  0  0  0  0  0
  -25.0926   30.8331  -37.5810 H   0  0  0  0  0  0
  -27.0130   29.2763  -37.4670 H   0  0  0  0  0  0
  -27.5085   29.5784  -41.7020 H   0  0  0  0  0  0
  -29.1958   28.4273  -40.3511 H   0  0  0  0  0  0
  -28.0105   27.2690  -37.7588 H   0  0  0  0  0  0
  -29.3617   25.6249  -36.7410 H   0  0  0  0  0  0
  -30.5646   23.8944  -37.5810 H   0  0  0  0  0  0
  -24.6308   33.4795  -40.7482 H   0  0  0  0  0  0
  -24.5425   35.7300  -41.0772 H   0  0  0  0  0  0
  -23.7623   35.0698  -42.4095 H   0  0  0  0  0  0
  -25.3453   36.9623  -43.0515 H   0  0  0  0  0  0
  -25.8737   35.4999  -43.8360 H   0  0  0  0  0  0
  -27.0749   36.7046  -41.3193 H   0  0  0  0  0  0
  -27.8279   36.5818  -42.8882 H   0  0  0  0  0  0
  -28.6605   34.8147  -41.3249 H   0  0  0  0  0  0
  -27.8893   34.1081  -42.7253 H   0  0  0  0  0  0
  -27.1448   32.9804  -40.6027 H   0  0  0  0  0  0
  -26.6131   34.4519  -39.9557 H   0  0  0  0  0  0
  1  2  2  0  0  0
  1  4  1  0  0  0
  1 28  1  0  0  0
  2  3  1  0  0  0
  2 29  1  0  0  0
  3  7  2  0  0  0
  3 30  1  0  0  0
  4  6  2  0  0  0
  4 31  1  0  0  0
  5  6  1  0  0  0
  5  9  2  0  0  0
  6  7  1  0  0  0
  7  8  1  0  0  0
  8  9  1  0  0  0
  8 22  1  0  0  0
  9 10  1  0  0  0
 10 15  1  0  0  0
 10 11  2  0  0  0
 11 12  1  0  0  0
 11 32  1  0  0  0
 12 13  2  0  0  0
 12 33  1  0  0  0
 13 14  1  0  0  0
 13 34  1  0  0  0
 14 15  2  0  0  0
 14 16  1  0  0  0
 15 35  1  0  0  0
 16 17  2  0  0  0
 16 36  1  0  0  0
 17 18  1  0  0  0
 17 37  1  0  0  0
 18 19  1  0  0  0
 18 20  2  0  0  0
 19 21  1  0  0  0
 19 38  1  0  0  0
 21 39  1  0  0  0
 22 23  1  0  0  0
 22 27  1  0  0  0
 22 40  1  0  0  0
 23 24  1  0  0  0
 23 41  1  0  0  0
 23 42  1  0  0  0
 24 25  1  0  0  0
 24 43  1  0  0  0
 24 44  1  0  0  0
 25 26  1  0  0  0
 25 45  1  0  0  0
 25 46  1  0  0  0
 26 27  1  0  0  0
 26 47  1  0  0  0
 26 48  1  0  0  0
 27 49  1  0  0  0
 27 50  1  0  0  0
M  END
> <s_m_entry_id>
52895

> <s_m_entry_name>
dock_pv.114

> <s_m_Source_Path>
/home/csk/Desktop/cluster/DUD-E-result/hdac8

> <s_m_Source_File>
dock_pv.maegz

> <i_m_Source_File_Index>
114

> <chembl_id>
CHEMBL1097369

> <chembl_pref_name>
None

> <i_lp_mmshare_version>
53161

> <i_f3d_flags>
0

> <r_lp_tautomer_probability>
1

> <s_lp_Force_Field>
OPLS_2005

> <r_lp_Energy>
35.014649

> <b_lp_Chiralities_Consistent>
1

> <s_lp_Variant>
CHEMBL3192_lig227-1

> <s_i_glide_gridfile>
glide-grid_3f07

> <i_i_glide_lignum>
237

> <i_i_glide_rotatable_bonds>
6

> <r_i_docking_score>
-7.92259538484344

> <r_i_glide_ligand_efficiency>
-0.293429458697905

> <r_i_glide_ligand_efficiency_sa>
-0.88028837512662

> <r_i_glide_ligand_efficiency_ln>
-1.84424959139858

> <r_i_glide_gscore>
-7.92259538484344

> <r_i_glide_lipo>
-1.17619251480113

> <r_i_glide_hbond>
-0.306754493602594

> <r_i_glide_metal>
-2.3

> <r_i_glide_rewards>
-1.12800618233984

> <r_i_glide_evdw>
-28.5318737030029

> <r_i_glide_ecoul>
-14.4855947494507

> <r_i_glide_erotb>
0.734499046064663

> <r_i_glide_esite>
-0.146708342596782

> <r_i_glide_emodel>
-68.5741544422345

> <r_i_glide_energy>
-43.0174684524536

> <r_i_glide_einternal>
2.62256264686584

> <i_i_glide_confnum>
235

> <i_i_glide_posenum>
139

> <r_i_glide_eff_state_penalty>
0

> <s_user_duplicate_titles>
CHEMBL3192_lig227,626503

> <s_m_subgroup_title>
dock_pv

> <s_m_subgroupid>
dock_pv

> <b_m_subgroup_collapsed>
1

$$$$
CHEMBL3192_lig726
                    3D
 Schrodinger Suite 2021-1.
 49 51  0  0  1  0            999 V2000
  -25.7233   30.5908  -39.1611 C   0  0  0  0  0  0
  -25.7951   31.2601  -40.3848 C   0  0  0  0  0  0
  -26.8680   31.0015  -41.2455 C   0  0  0  0  0  0
  -27.8365   30.0681  -40.8941 C   0  0  0  0  0  0
  -27.7464   29.3688  -39.6882 C   0  0  0  0  0  0
  -26.6932   29.6522  -38.8145 C   0  0  0  0  0  0
  -28.7598   28.3326  -39.4094 C   0  0  0  0  0  0
  -28.7616   27.4381  -38.3958 C   0  0  0  0  0  0
  -29.8159   26.4689  -38.2460 C   0  0  0  0  0  0
  -30.0285   26.0672  -36.9989 N   0  0  0  0  0  0
  -30.5146   26.0690  -39.1810 O   0  0  0  0  0  0
  -24.6636   32.2208  -40.7613 C   0  0  0  0  0  0
  -24.9551   33.1685  -41.8350 N   0  0  2  0  0  0
  -25.8283   34.2533  -41.4070 C   0  0  0  0  0  0
  -26.0678   35.2426  -42.5643 C   0  0  0  0  0  0
  -27.0474   34.7620  -43.6294 C   0  0  0  0  0  0
  -28.9033   34.5377  -44.8821 N   0  0  0  0  0  0
  -28.3692   35.1667  -43.7859 C   0  0  0  0  0  0
  -27.9789   33.7112  -45.4717 C   0  0  0  0  0  0
  -26.7851   33.8261  -44.6994 C   0  0  0  0  0  0
  -25.6655   33.0753  -45.1001 C   0  0  0  0  0  0
  -25.7734   32.2276  -46.2046 C   0  0  0  0  0  0
  -26.9567   32.1323  -46.9324 C   0  0  0  0  0  0
  -28.0790   32.8915  -46.6001 C   0  0  0  0  0  0
  -29.2244   36.1220  -42.9835 C   0  0  0  0  0  0
  -27.0150   31.2773  -47.9993 O   0  0  0  0  0  0
  -24.9012   30.7825  -38.4840 H   0  0  0  0  0  0
  -26.9522   31.5040  -42.1973 H   0  0  0  0  0  0
  -28.6444   29.8717  -41.5812 H   0  0  0  0  0  0
  -26.6105   29.1326  -37.8745 H   0  0  0  0  0  0
  -29.5801   28.3189  -40.1126 H   0  0  0  0  0  0
  -27.9804   27.4132  -37.6511 H   0  0  0  0  0  0
  -30.7539   25.3972  -36.7947 H   0  0  0  0  0  0
  -29.4621   26.4394  -36.2479 H   0  0  0  0  0  0
  -24.2197   32.6978  -39.8851 H   0  0  0  0  0  0
  -23.8734   31.5790  -41.1544 H   0  0  0  0  0  0
  -25.3141   32.6988  -42.6516 H   0  0  0  0  0  0
  -26.7848   33.8444  -41.0755 H   0  0  0  0  0  0
  -25.3904   34.7801  -40.5558 H   0  0  0  0  0  0
  -26.4525   36.1604  -42.1193 H   0  0  0  0  0  0
  -25.1161   35.5405  -43.0081 H   0  0  0  0  0  0
  -29.8506   34.7010  -45.1894 H   0  0  0  0  0  0
  -24.7286   33.1538  -44.5666 H   0  0  0  0  0  0
  -24.9203   31.6378  -46.5059 H   0  0  0  0  0  0
  -28.9870   32.8611  -47.1856 H   0  0  0  0  0  0
  -28.6317   36.9180  -42.5305 H   0  0  0  0  0  0
  -29.9821   36.6156  -43.5959 H   0  0  0  0  0  0
  -29.7469   35.6119  -42.1738 H   0  0  0  0  0  0
  -27.8988   31.2161  -48.3809 H   0  0  0  0  0  0
  1  2  2  0  0  0
  1  6  1  0  0  0
  1 27  1  0  0  0
  2  3  1  0  0  0
  2 12  1  0  0  0
  3  4  2  0  0  0
  3 28  1  0  0  0
  4  5  1  0  0  0
  4 29  1  0  0  0
  5  6  2  0  0  0
  5  7  1  0  0  0
  6 30  1  0  0  0
  7  8  2  0  0  0
  7 31  1  0  0  0
  8  9  1  0  0  0
  8 32  1  0  0  0
  9 10  1  0  0  0
  9 11  2  0  0  0
 10 33  1  0  0  0
 10 34  1  0  0  0
 12 13  1  0  0  0
 12 35  1  0  0  0
 12 36  1  0  0  0
 13 14  1  0  0  0
 13 37  1  0  0  0
 14 15  1  0  0  0
 14 38  1  0  0  0
 14 39  1  0  0  0
 15 16  1  0  0  0
 15 40  1  0  0  0
 15 41  1  0  0  0
 16 20  1  0  0  0
 16 18  2  0  0  0
 17 19  1  0  0  0
 17 18  1  0  0  0
 17 42  1  0  0  0
 18 25  1  0  0  0
 19 20  2  0  0  0
 19 24  1  0  0  0
 20 21  1  0  0  0
 21 22  2  0  0  0
 21 43  1  0  0  0
 22 23  1  0  0  0
 22 44  1  0  0  0
 23 24  2  0  0  0
 23 26  1  0  0  0
 24 45  1  0  0  0
 25 46  1  0  0  0
 25 47  1  0  0  0
 25 48  1  0  0  0
 26 49  1  0  0  0
M  END
> <s_m_entry_id>
52896

> <s_m_entry_name>
dock_pv.115

> <s_m_Source_Path>
/home/csk/Desktop/cluster/DUD-E-result/hdac8

> <s_m_Source_File>
dock_pv.maegz

> <i_m_Source_File_Index>
115

> <chembl_id>
CHEMBL3526942

> <chembl_pref_name>
None

> <i_lp_mmshare_version>
53161

> <i_f3d_flags>
0

> <r_lp_tautomer_probability>
1

> <s_lp_Force_Field>
OPLS_2005

> <r_lp_Energy>
9.340465

> <b_lp_Chiralities_Consistent>
1

> <s_lp_Variant>
CHEMBL3192_lig726-1

> <s_i_glide_gridfile>
glide-grid_3f07

> <i_i_glide_lignum>
776

> <i_i_glide_rotatable_bonds>
8

> <r_i_docking_score>
-7.92158415551104

> <r_i_glide_ligand_efficiency>
-0.304676313673501

> <r_i_glide_ligand_efficiency_sa>
-0.902602380414343

> <r_i_glide_ligand_efficiency_ln>
-1.86035804608408

> <r_i_glide_gscore>
-7.92158415551104

> <r_i_glide_lipo>
-1.3148082802147

> <r_i_glide_hbond>
-0.684449191268317

> <r_i_glide_metal>
-2.3

> <r_i_glide_rewards>
-1.31830607575758

> <r_i_glide_evdw>
-29.37180519104

> <r_i_glide_ecoul>
-12.183331489563

> <r_i_glide_erotb>
1.092069374716

> <r_i_glide_esite>
-0.1

> <r_i_glide_emodel>
-65.3598765258314

> <r_i_glide_energy>
-41.555136680603

> <r_i_glide_einternal>
3.32534790039062

> <i_i_glide_confnum>
15

> <i_i_glide_posenum>
361

> <r_i_glide_eff_state_penalty>
0

> <s_user_duplicate_titles>
CHEMBL3192_lig726

> <s_m_subgroup_title>
dock_pv

> <s_m_subgroupid>
dock_pv

> <b_m_subgroup_collapsed>
1

$$$$
CHEMBL3192_lig249
                    3D
 Schrodinger Suite 2021-1.
 55 58  0  0  1  0            999 V2000
  -23.5906   31.4168  -40.2110 N   0  0  0  0  0  0
  -20.6129   30.7623  -37.3912 C   0  0  0  0  0  0
  -20.1737   31.2761  -38.6079 C   0  0  0  0  0  0
  -21.0495   31.5395  -39.6641 C   0  0  0  0  0  0
  -21.9574   30.4690  -37.1812 C   0  0  0  0  0  0
  -24.1939   30.4690  -38.2401 N   0  0  0  0  0  0
  -22.8586   30.7179  -38.2267 C   0  0  0  0  0  0
  -22.4164   31.2690  -39.4600 C   0  0  0  0  0  0
  -24.6157   30.9200  -39.3911 C   0  0  0  0  0  0
  -26.0815   30.8662  -39.7074 C   0  0  0  0  0  0
  -26.7413   31.9697  -40.2569 C   0  0  0  0  0  0
  -28.0809   31.8867  -40.6152 C   0  0  0  0  0  0
  -28.7945   30.7155  -40.3810 C   0  0  0  0  0  0
  -28.1806   29.6203  -39.7688 C   0  0  0  0  0  0
  -26.8233   29.7056  -39.4280 C   0  0  0  0  0  0
  -29.0130   28.4368  -39.4976 C   0  0  0  0  0  0
  -28.8951   27.5731  -38.4651 C   0  0  0  0  0  0
  -29.8130   26.4690  -38.2824 C   0  0  0  0  0  0
  -29.8143   25.9596  -37.0441 N   0  0  0  0  0  0
  -30.5602   26.0690  -39.1810 O   0  0  0  0  0  0
  -30.6611   24.8705  -36.7756 O   0  0  0  0  0  0
  -23.7813   32.0480  -41.5513 C   0  0  1  0  0  0
  -22.5579   32.7323  -42.1977 C   0  0  0  0  0  0
  -21.7580   31.7542  -43.0667 C   0  0  0  0  0  0
  -22.6618   31.1673  -44.1627 C   0  0  0  0  0  0
  -23.8256   30.4708  -43.5989 N   0  0  1  0  0  0
  -24.5997   31.1879  -42.5667 C   0  0  0  0  0  0
  -24.6739   29.8298  -44.6103 C   0  0  0  0  0  0
  -25.3813   30.8032  -45.5758 C   0  0  0  0  0  0
  -19.8971   30.5814  -36.6021 H   0  0  0  0  0  0
  -19.1209   31.4841  -38.7342 H   0  0  0  0  0  0
  -20.6470   31.9382  -40.5775 H   0  0  0  0  0  0
  -22.2947   30.0557  -36.2438 H   0  0  0  0  0  0
  -26.2297   32.9074  -40.4007 H   0  0  0  0  0  0
  -28.5618   32.7379  -41.0713 H   0  0  0  0  0  0
  -29.8375   30.6699  -40.6614 H   0  0  0  0  0  0
  -26.3285   28.8607  -38.9702 H   0  0  0  0  0  0
  -29.7941   28.2821  -40.2280 H   0  0  0  0  0  0
  -28.1221   27.7013  -37.7211 H   0  0  0  0  0  0
  -29.2530   26.2481  -36.2517 H   0  0  0  0  0  0
  -30.0800   24.1051  -36.8497 H   0  0  0  0  0  0
  -24.3772   32.9225  -41.3026 H   0  0  0  0  0  0
  -22.9224   33.5399  -42.8360 H   0  0  0  0  0  0
  -21.9686   33.2937  -41.4748 H   0  0  0  0  0  0
  -20.9224   32.2780  -43.5318 H   0  0  0  0  0  0
  -21.3125   30.9463  -42.4864 H   0  0  0  0  0  0
  -22.9952   31.9639  -44.8284 H   0  0  0  0  0  0
  -22.0967   30.4699  -44.7804 H   0  0  0  0  0  0
  -25.2183   30.4408  -42.0723 H   0  0  0  0  0  0
  -25.2853   31.8700  -43.0686 H   0  0  0  0  0  0
  -24.0656   29.1293  -45.1810 H   0  0  0  0  0  0
  -25.4149   29.2089  -44.1047 H   0  0  0  0  0  0
  -25.9812   30.2540  -46.2981 H   0  0  0  0  0  0
  -26.0566   31.4832  -45.0580 H   0  0  0  0  0  0
  -24.6730   31.4023  -46.1468 H   0  0  0  0  0  0
  1  8  1  0  0  0
  1  9  1  0  0  0
  1 22  1  0  0  0
  2  3  2  0  0  0
  2  5  1  0  0  0
  2 30  1  0  0  0
  3  4  1  0  0  0
  3 31  1  0  0  0
  4  8  2  0  0  0
  4 32  1  0  0  0
  5  7  2  0  0  0
  5 33  1  0  0  0
  6  7  1  0  0  0
  6  9  2  0  0  0
  7  8  1  0  0  0
  9 10  1  0  0  0
 10 15  1  0  0  0
 10 11  2  0  0  0
 11 12  1  0  0  0
 11 34  1  0  0  0
 12 13  2  0  0  0
 12 35  1  0  0  0
 13 14  1  0  0  0
 13 36  1  0  0  0
 14 15  2  0  0  0
 14 16  1  0  0  0
 15 37  1  0  0  0
 16 17  2  0  0  0
 16 38  1  0  0  0
 17 18  1  0  0  0
 17 39  1  0  0  0
 18 19  1  0  0  0
 18 20  2  0  0  0
 19 21  1  0  0  0
 19 40  1  0  0  0
 21 41  1  0  0  0
 22 23  1  0  0  0
 22 27  1  0  0  0
 22 42  1  0  0  0
 23 24  1  0  0  0
 23 43  1  0  0  0
 23 44  1  0  0  0
 24 25  1  0  0  0
 24 45  1  0  0  0
 24 46  1  0  0  0
 25 26  1  0  0  0
 25 47  1  0  0  0
 25 48  1  0  0  0
 26 27  1  0  0  0
 26 28  1  0  0  0
 27 49  1  0  0  0
 27 50  1  0  0  0
 28 29  1  0  0  0
 28 51  1  0  0  0
 28 52  1  0  0  0
 29 53  1  0  0  0
 29 54  1  0  0  0
 29 55  1  0  0  0
M  END
> <s_m_entry_id>
52897

> <s_m_entry_name>
dock_pv.116

> <s_m_Source_Path>
/home/csk/Desktop/cluster/DUD-E-result/hdac8

> <s_m_Source_File>
dock_pv.maegz

> <i_m_Source_File_Index>
116

> <chembl_id>
CHEMBL1095764

> <chembl_pref_name>
None

> <i_lp_mmshare_version>
53161

> <i_f3d_flags>
0

> <r_lp_tautomer_probability>
1

> <s_lp_Force_Field>
OPLS_2005

> <r_lp_Energy>
40.883305

> <b_lp_Chiralities_Consistent>
1

> <s_lp_Variant>
CHEMBL3192_lig249-2

> <s_i_glide_gridfile>
glide-grid_3f07

> <i_i_glide_lignum>
262

> <i_i_glide_rotatable_bonds>
7

> <r_i_docking_score>
-7.91387753989928

> <r_i_glide_ligand_efficiency>
-0.272892328962044

> <r_i_glide_ligand_efficiency_sa>
-0.838411692929625

> <r_i_glide_ligand_efficiency_ln>
-1.81207727801755

> <r_i_glide_gscore>
-7.91387753989928

> <r_i_glide_lipo>
-1.14180737810224

> <r_i_glide_hbond>
-0.384612213901618

> <r_i_glide_metal>
-2.3

> <r_i_glide_rewards>
-1.07265191947231

> <r_i_glide_evdw>
-34.2002639770508

> <r_i_glide_ecoul>
-12.1228179931641

> <r_i_glide_erotb>
0.639616570681191

> <r_i_glide_esite>
-0.125986701277149

> <r_i_glide_emodel>
-65.3606136211749

> <r_i_glide_energy>
-46.3230819702148

> <r_i_glide_einternal>
7.51468563079834

> <i_i_glide_confnum>
91

> <i_i_glide_posenum>
316

> <r_i_glide_eff_state_penalty>
0

> <s_user_duplicate_titles>
CHEMBL3192_lig249,CHEMBL3192_lig251,625636,625570

> <s_m_subgroup_title>
dock_pv

> <s_m_subgroupid>
dock_pv

> <b_m_subgroup_collapsed>
1

$$$$
CHEMBL3192_lig36
                    3D
 Schrodinger Suite 2021-1.
 44 44  0  0  1  0            999 V2000
  -26.0046   32.3033  -40.0444 C   0  0  0  0  0  0
  -26.8004   31.5553  -41.1396 C   0  0  2  0  0  0
  -27.6504   30.3372  -40.7284 C   0  0  0  0  0  0
  -27.5877   29.4995  -39.6583 C   0  0  0  0  0  0
  -26.4872   29.6019  -38.6142 C   0  0  0  0  0  0
  -28.6234   28.4611  -39.5701 C   0  0  0  0  0  0
  -28.7223   27.4681  -38.6508 C   0  0  0  0  0  0
  -29.8127   26.5114  -38.6620 C   0  0  0  0  0  0
  -30.6236   26.4691  -39.5808 O   0  0  0  0  0  0
  -29.8826   25.7230  -37.5818 N   0  0  0  0  0  0
  -30.9259   24.7854  -37.5042 O   0  0  0  0  0  0
  -25.8696   31.1769  -42.3111 C   0  0  0  0  0  0
  -24.8886   30.4688  -42.0757 O   0  0  0  0  0  0
  -26.2614   31.5707  -43.7010 C   0  0  0  0  0  0
  -27.0122   32.7247  -43.9671 C   0  0  0  0  0  0
  -27.3800   33.0408  -45.2724 C   0  0  0  0  0  0
  -26.9928   32.2373  -46.3527 C   0  0  0  0  0  0
  -26.1807   31.1258  -46.0837 C   0  0  0  0  0  0
  -25.8223   30.7903  -44.7810 C   0  0  0  0  0  0
  -27.4090   32.5353  -47.6772 N   0  0  0  0  0  0
  -27.0177   31.6734  -48.7909 C   0  0  0  0  0  0
  -28.4541   33.5325  -47.9258 C   0  0  0  0  0  0
  -25.1261   31.7528  -39.7021 H   0  0  0  0  0  0
  -25.6387   33.2556  -40.4318 H   0  0  0  0  0  0
  -26.6102   32.5457  -39.1790 H   0  0  0  0  0  0
  -27.5431   32.2748  -41.4892 H   0  0  0  0  0  0
  -28.4450   30.1685  -41.4416 H   0  0  0  0  0  0
  -26.4435   28.7198  -37.9837 H   0  0  0  0  0  0
  -25.5106   29.6745  -39.0930 H   0  0  0  0  0  0
  -26.6116   30.4945  -37.9979 H   0  0  0  0  0  0
  -29.3885   28.5181  -40.3303 H   0  0  0  0  0  0
  -28.0044   27.3520  -37.8544 H   0  0  0  0  0  0
  -29.2605   25.6921  -36.7847 H   0  0  0  0  0  0
  -30.4751   23.9325  -37.5832 H   0  0  0  0  0  0
  -27.3160   33.3949  -43.1818 H   0  0  0  0  0  0
  -27.9744   33.9285  -45.4238 H   0  0  0  0  0  0
  -25.8319   30.4864  -46.8755 H   0  0  0  0  0  0
  -25.2180   29.9132  -44.6167 H   0  0  0  0  0  0
  -25.9312   31.5925  -48.8613 H   0  0  0  0  0  0
  -27.4100   30.6681  -48.6394 H   0  0  0  0  0  0
  -27.3921   32.0370  -49.7482 H   0  0  0  0  0  0
  -29.3718   33.2592  -47.4098 H   0  0  0  0  0  0
  -28.1436   34.5130  -47.5582 H   0  0  0  0  0  0
  -28.6975   33.6289  -48.9802 H   0  0  0  0  0  0
  1  2  1  0  0  0
  1 23  1  0  0  0
  1 24  1  0  0  0
  1 25  1  0  0  0
  2  3  1  0  0  0
  2 12  1  0  0  0
  2 26  1  0  0  0
  3  4  2  0  0  0
  3 27  1  0  0  0
  4  5  1  0  0  0
  4  6  1  0  0  0
  5 28  1  0  0  0
  5 29  1  0  0  0
  5 30  1  0  0  0
  6  7  2  0  0  0
  6 31  1  0  0  0
  7  8  1  0  0  0
  7 32  1  0  0  0
  8  9  2  0  0  0
  8 10  1  0  0  0
 10 11  1  0  0  0
 10 33  1  0  0  0
 11 34  1  0  0  0
 12 13  2  0  0  0
 12 14  1  0  0  0
 14 15  2  0  0  0
 14 19  1  0  0  0
 15 16  1  0  0  0
 15 35  1  0  0  0
 16 17  2  0  0  0
 16 36  1  0  0  0
 17 18  1  0  0  0
 17 20  1  0  0  0
 18 19  2  0  0  0
 18 37  1  0  0  0
 19 38  1  0  0  0
 20 21  1  0  0  0
 20 22  1  0  0  0
 21 39  1  0  0  0
 21 40  1  0  0  0
 21 41  1  0  0  0
 22 42  1  0  0  0
 22 43  1  0  0  0
 22 44  1  0  0  0
M  END
> <s_m_entry_id>
52899

> <s_m_entry_name>
dock_pv.118

> <s_m_Source_Path>
/home/csk/Desktop/cluster/DUD-E-result/hdac8

> <s_m_Source_File>
dock_pv.maegz

> <i_m_Source_File_Index>
118

> <chembl_id>
CHEMBL99

> <chembl_pref_name>
TRICHOSTATIN

> <i_lp_mmshare_version>
53161

> <i_f3d_flags>
0

> <r_lp_tautomer_probability>
1

> <s_lp_Force_Field>
OPLS_2005

> <r_lp_Energy>
27.04124

> <b_lp_Chiralities_Consistent>
1

> <s_lp_Variant>
CHEMBL3192_lig36-1

> <s_i_glide_gridfile>
glide-grid_3f07

> <i_i_glide_lignum>
37

> <i_i_glide_rotatable_bonds>
8

> <r_i_docking_score>
-7.91226058613786

> <r_i_glide_ligand_efficiency>
-0.359648208460812

> <r_i_glide_ligand_efficiency_sa>
-1.00774842426861

> <r_i_glide_ligand_efficiency_ln>
-1.93404509396932

> <r_i_glide_gscore>
-7.91226058613786

> <r_i_glide_lipo>
-1.4028959164008

> <r_i_glide_hbond>
-0.305442145265411

> <r_i_glide_metal>
-2.3

> <r_i_glide_rewards>
-1.52424788094449

> <r_i_glide_evdw>
-25.3045673370361

> <r_i_glide_ecoul>
-14.4519090652466

> <r_i_glide_erotb>
1.20825227151759

> <r_i_glide_esite>
-0.154912188405955

> <r_i_glide_emodel>
-62.3873364732716

> <r_i_glide_energy>
-39.7564764022827

> <r_i_glide_einternal>
2.75465965270996

> <i_i_glide_confnum>
5

> <i_i_glide_posenum>
189

> <r_i_glide_eff_state_penalty>
0

> <s_user_duplicate_titles>
CHEMBL3192_lig36,11501

> <s_m_subgroup_title>
dock_pv

> <s_m_subgroupid>
dock_pv

> <b_m_subgroup_collapsed>
1

$$$$
CHEMBL3192_lig929
                    3D
 Schrodinger Suite 2021-1.
 36 38  0  0  1  0            999 V2000
  -30.6130   24.9032  -38.1988 O   0  0  0  0  0  0
  -29.6521   25.9354  -38.1832 N   0  0  0  0  0  0
  -29.7006   26.8690  -39.1466 C   0  0  0  0  0  0
  -28.6045   27.8461  -39.1746 C   0  0  0  0  0  0
  -27.4753   27.7928  -38.3810 C   0  0  0  0  0  0
  -26.6320   28.7768  -38.7285 O   0  0  0  0  0  0
  -27.2584   29.4242  -39.7293 C   0  0  0  0  0  0
  -26.5298   30.6684  -40.3251 C   0  0  0  0  0  0
  -26.5938   30.7644  -41.8555 C   0  0  0  0  0  0
  -28.4611   28.9096  -39.9810 N   0  0  0  0  0  0
  -30.6130   26.8690  -39.9810 O   0  0  0  0  0  0
  -25.0572   30.8910  -39.8421 C   0  0  0  0  0  0
  -26.2130   29.6690  -42.6317 C   0  0  0  0  0  0
  -26.0350   29.8019  -44.0055 C   0  0  0  0  0  0
  -26.2334   31.0421  -44.6058 C   0  0  0  0  0  0
  -26.6209   32.1427  -43.8442 C   0  0  0  0  0  0
  -26.8088   32.0033  -42.4699 C   0  0  0  0  0  0
  -24.7143   30.7532  -38.4911 C   0  0  0  0  0  0
  -23.3918   30.8690  -38.0676 C   0  0  0  0  0  0
  -22.3982   31.2175  -38.9747 C   0  0  0  0  0  0
  -22.7162   31.4323  -40.3075 C   0  0  0  0  0  0
  -24.0295   31.2689  -40.7341 C   0  0  0  0  0  0
  -30.1021   24.1075  -37.9813 H   0  0  0  0  0  0
  -29.1281   25.9814  -37.3190 H   0  0  0  0  0  0
  -27.1316   27.1609  -37.5810 H   0  0  0  0  0  0
  -27.0647   31.5346  -39.9335 H   0  0  0  0  0  0
  -25.9888   28.7255  -42.1555 H   0  0  0  0  0  0
  -25.7191   28.9554  -44.5980 H   0  0  0  0  0  0
  -26.0844   31.1529  -45.6700 H   0  0  0  0  0  0
  -26.7638   33.1039  -44.3159 H   0  0  0  0  0  0
  -27.0569   32.8730  -41.8791 H   0  0  0  0  0  0
  -25.4740   30.5610  -37.7519 H   0  0  0  0  0  0
  -23.1415   30.7394  -37.0257 H   0  0  0  0  0  0
  -21.3816   31.3463  -38.6340 H   0  0  0  0  0  0
  -21.9473   31.7212  -41.0085 H   0  0  0  0  0  0
  -24.2130   31.4382  -41.7829 H   0  0  0  0  0  0
  1  2  1  0  0  0
  1 23  1  0  0  0
  2  3  1  0  0  0
  2 24  1  0  0  0
  3  4  1  0  0  0
  3 11  2  0  0  0
  4  5  2  0  0  0
  4 10  1  0  0  0
  5  6  1  0  0  0
  5 25  1  0  0  0
  6  7  1  0  0  0
  7  8  1  0  0  0
  7 10  2  0  0  0
  8  9  1  0  0  0
  8 12  1  0  0  0
  8 26  1  0  0  0
  9 13  2  0  0  0
  9 17  1  0  0  0
 12 18  2  0  0  0
 12 22  1  0  0  0
 13 14  1  0  0  0
 13 27  1  0  0  0
 14 15  2  0  0  0
 14 28  1  0  0  0
 15 16  1  0  0  0
 15 29  1  0  0  0
 16 17  2  0  0  0
 16 30  1  0  0  0
 17 31  1  0  0  0
 18 19  1  0  0  0
 18 32  1  0  0  0
 19 20  2  0  0  0
 19 33  1  0  0  0
 20 21  1  0  0  0
 20 34  1  0  0  0
 21 22  2  0  0  0
 21 35  1  0  0  0
 22 36  1  0  0  0
M  END
> <s_m_entry_id>
52900

> <s_m_entry_name>
dock_pv.119

> <s_m_Source_Path>
/home/csk/Desktop/cluster/DUD-E-result/hdac8

> <s_m_Source_File>
dock_pv.maegz

> <i_m_Source_File_Index>
119

> <chembl_id>
CHEMBL3770136

> <chembl_pref_name>
None

> <i_lp_mmshare_version>
53161

> <i_f3d_flags>
0

> <r_lp_tautomer_probability>
1

> <s_lp_Force_Field>
OPLS_2005

> <r_lp_Energy>
26.161184

> <b_lp_Chiralities_Consistent>
1

> <s_lp_Variant>
CHEMBL3192_lig929-1

> <s_i_glide_gridfile>
glide-grid_3f07

> <i_i_glide_lignum>
990

> <i_i_glide_rotatable_bonds>
6

> <r_i_docking_score>
-7.90663841705256

> <r_i_glide_ligand_efficiency>
-0.359392655320571

> <r_i_glide_ligand_efficiency_sa>
-1.00703235431932

> <r_i_glide_ligand_efficiency_ln>
-1.93267083077127

> <r_i_glide_gscore>
-7.90663841705256

> <r_i_glide_lipo>
-1.47937871267695

> <r_i_glide_hbond>
-0.304

> <r_i_glide_metal>
-2.3

> <r_i_glide_rewards>
-1.58565689382121

> <r_i_glide_evdw>
-15.2004747390747

> <r_i_glide_ecoul>
-15.554651260376

> <r_i_glide_erotb>
1.05561861545574

> <r_i_glide_esite>
-0.2

> <r_i_glide_emodel>
-46.255356066858

> <r_i_glide_energy>
-30.7551259994507

> <r_i_glide_einternal>
6.14479684829712

> <i_i_glide_confnum>
9

> <i_i_glide_posenum>
358

> <r_i_glide_eff_state_penalty>
0

> <s_user_duplicate_titles>
CHEMBL3192_lig929

> <s_m_subgroup_title>
dock_pv

> <s_m_subgroupid>
dock_pv

> <b_m_subgroup_collapsed>
1

$$$$
CHEMBL3192_lig242
                    3D
 Schrodinger Suite 2021-1.
 50 53  0  0  1  0            999 V2000
  -27.8130   34.4690  -42.9346 C   0  0  0  0  0  0
  -28.9332   35.2763  -43.1144 C   0  0  0  0  0  0
  -29.2130   36.2843  -42.1958 C   0  0  0  0  0  0
  -28.3869   36.4846  -41.0933 C   0  0  0  0  0  0
  -27.2693   35.6746  -40.9140 C   0  0  0  0  0  0
  -26.9611   34.6681  -41.8380 C   0  0  0  0  0  0
  -25.4980   32.6621  -42.5116 N   0  0  0  0  0  0
  -24.5824   32.1518  -46.5017 C   0  0  0  0  0  0
  -24.6157   33.4744  -46.0594 C   0  0  0  0  0  0
  -24.9106   33.8055  -44.7340 C   0  0  0  0  0  0
  -24.8486   31.0926  -45.6337 C   0  0  0  0  0  0
  -25.4516   30.5370  -43.2818 N   0  0  0  0  0  0
  -25.1464   31.3937  -44.2981 C   0  0  0  0  0  0
  -25.1683   32.7416  -43.8583 C   0  0  0  0  0  0
  -25.6302   31.3051  -42.2336 C   0  0  0  0  0  0
  -25.9762   30.7322  -40.9017 C   0  0  0  0  0  0
  -25.2706   31.0856  -39.7469 C   0  0  0  0  0  0
  -25.6439   30.5656  -38.5119 C   0  0  0  0  0  0
  -26.7073   29.6691  -38.4274 C   0  0  0  0  0  0
  -27.3993   29.2747  -39.5730 C   0  0  0  0  0  0
  -27.0230   29.8110  -40.8064 C   0  0  0  0  0  0
  -28.5032   28.3071  -39.5209 C   0  0  0  0  0  0
  -28.7076   27.3717  -38.5650 C   0  0  0  0  0  0
  -29.8307   26.4690  -38.6207 C   0  0  0  0  0  0
  -29.9729   25.6703  -37.5514 N   0  0  0  0  0  0
  -30.6130   26.4690  -39.5810 O   0  0  0  0  0  0
  -31.0130   24.7259  -37.5510 O   0  0  0  0  0  0
  -25.7218   33.7916  -41.5806 C   0  0  1  0  0  0
  -24.4122   34.5953  -41.4147 C   0  0  0  0  0  0
  -27.6251   33.6914  -43.6587 H   0  0  0  0  0  0
  -29.5779   35.1246  -43.9682 H   0  0  0  0  0  0
  -30.0755   36.9183  -42.3416 H   0  0  0  0  0  0
  -28.6043   37.2686  -40.3817 H   0  0  0  0  0  0
  -26.6414   35.8321  -40.0486 H   0  0  0  0  0  0
  -24.3499   31.9476  -47.5370 H   0  0  0  0  0  0
  -24.4089   34.2664  -46.7652 H   0  0  0  0  0  0
  -24.9425   34.8356  -44.4120 H   0  0  0  0  0  0
  -24.8304   30.0704  -45.9801 H   0  0  0  0  0  0
  -24.4432   31.7802  -39.7959 H   0  0  0  0  0  0
  -25.1106   30.8690  -37.6236 H   0  0  0  0  0  0
  -27.0130   29.2862  -37.4701 H   0  0  0  0  0  0
  -27.5561   29.5284  -41.7024 H   0  0  0  0  0  0
  -29.2049   28.4024  -40.3380 H   0  0  0  0  0  0
  -28.0316   27.2690  -37.7285 H   0  0  0  0  0  0
  -29.3860   25.6180  -36.7300 H   0  0  0  0  0  0
  -30.5504   23.8777  -37.6001 H   0  0  0  0  0  0
  -25.9338   33.3618  -40.6054 H   0  0  0  0  0  0
  -24.4432   35.2276  -40.5268 H   0  0  0  0  0  0
  -23.5500   33.9373  -41.2968 H   0  0  0  0  0  0
  -24.2202   35.2448  -42.2678 H   0  0  0  0  0  0
  1  6  1  0  0  0
  1  2  2  0  0  0
  1 30  1  0  0  0
  2  3  1  0  0  0
  2 31  1  0  0  0
  3  4  2  0  0  0
  3 32  1  0  0  0
  4  5  1  0  0  0
  4 33  1  0  0  0
  5  6  2  0  0  0
  5 34  1  0  0  0
  6 28  1  0  0  0
  7 14  1  0  0  0
  7 15  1  0  0  0
  7 28  1  0  0  0
  8  9  2  0  0  0
  8 11  1  0  0  0
  8 35  1  0  0  0
  9 10  1  0  0  0
  9 36  1  0  0  0
 10 14  2  0  0  0
 10 37  1  0  0  0
 11 13  2  0  0  0
 11 38  1  0  0  0
 12 15  2  0  0  0
 12 13  1  0  0  0
 13 14  1  0  0  0
 15 16  1  0  0  0
 16 17  2  0  0  0
 16 21  1  0  0  0
 17 18  1  0  0  0
 17 39  1  0  0  0
 18 19  2  0  0  0
 18 40  1  0  0  0
 19 20  1  0  0  0
 19 41  1  0  0  0
 20 21  2  0  0  0
 20 22  1  0  0  0
 21 42  1  0  0  0
 22 23  2  0  0  0
 22 43  1  0  0  0
 23 24  1  0  0  0
 23 44  1  0  0  0
 24 25  1  0  0  0
 24 26  2  0  0  0
 25 27  1  0  0  0
 25 45  1  0  0  0
 27 46  1  0  0  0
 28 29  1  0  0  0
 28 47  1  0  0  0
 29 48  1  0  0  0
 29 49  1  0  0  0
 29 50  1  0  0  0
M  END
> <s_m_entry_id>
52901

> <s_m_entry_name>
dock_pv.120

> <s_m_Source_Path>
/home/csk/Desktop/cluster/DUD-E-result/hdac8

> <s_m_Source_File>
dock_pv.maegz

> <i_m_Source_File_Index>
120

> <chembl_id>
CHEMBL1094793

> <chembl_pref_name>
None

> <i_lp_mmshare_version>
53161

> <i_f3d_flags>
0

> <r_lp_tautomer_probability>
1

> <s_lp_Force_Field>
OPLS_2005

> <r_lp_Energy>
32.450483

> <b_lp_Chiralities_Consistent>
1

> <s_lp_Variant>
CHEMBL3192_lig242-1

> <s_i_glide_gridfile>
glide-grid_3f07

> <i_i_glide_lignum>
252

> <i_i_glide_rotatable_bonds>
7

> <r_i_docking_score>
-7.90185363516098

> <r_i_glide_ligand_efficiency>
-0.272477711557275

> <r_i_glide_ligand_efficiency_sa>
-0.837137856902161

> <r_i_glide_ligand_efficiency_ln>
-1.80932410873239

> <r_i_glide_gscore>
-7.90185363516098

> <r_i_glide_lipo>
-1.14672198594444

> <r_i_glide_hbond>
-0.305714442945579

> <r_i_glide_metal>
-2.3

> <r_i_glide_rewards>
-0.977922274050374

> <r_i_glide_evdw>
-29.7456455230713

> <r_i_glide_ecoul>
-15.5549955368042

> <r_i_glide_erotb>
0.792998529484183

> <r_i_glide_esite>
-0.143961855030581

> <r_i_glide_emodel>
-73.8248969699185

> <r_i_glide_energy>
-45.3006410598755

> <r_i_glide_einternal>
0.676445186138153

> <i_i_glide_confnum>
15

> <i_i_glide_posenum>
118

> <r_i_glide_eff_state_penalty>
0

> <s_user_duplicate_titles>
CHEMBL3192_lig242,625497

> <s_m_subgroup_title>
dock_pv

> <s_m_subgroupid>
dock_pv

> <b_m_subgroup_collapsed>
1

$$$$
CHEMBL3192_lig1049
                    3D
 Schrodinger Suite 2021-1.
 46 49  0  0  1  0            999 V2000
  -30.6109   24.8694  -38.2148 O   0  0  0  0  0  0
  -29.7138   25.9564  -38.1354 N   0  0  0  0  0  0
  -29.7337   26.8690  -39.1185 C   0  0  0  0  0  0
  -30.6131   26.8690  -39.9810 O   0  0  0  0  0  0
  -28.7137   27.9939  -39.1393 C   0  0  0  0  0  0
  -27.5505   27.9443  -38.3811 C   0  0  0  0  0  0
  -26.6117   28.9612  -38.4711 C   0  0  0  0  0  0
  -26.7717   30.0660  -39.2868 C   0  0  0  0  0  0
  -25.6538   31.1125  -39.3501 C   0  0  0  0  0  0
  -26.0300   32.3549  -40.1811 C   0  0  0  0  0  0
  -26.7834   31.9803  -41.4610 C   0  0  2  0  0  0
  -28.0982   31.2641  -41.0840 C   0  0  0  0  0  0
  -27.9222   30.1253  -40.0893 C   0  0  0  0  0  0
  -28.8850   29.1096  -39.9810 C   0  0  0  0  0  0
  -25.9325   31.1178  -42.2862 N   0  0  0  0  0  0
  -25.8262   31.2197  -43.6776 C   0  0  0  0  0  0
  -24.8628   30.4463  -44.2366 N   0  0  0  0  0  0
  -24.6949   30.5637  -45.5766 C   0  0  0  0  0  0
  -25.4947   31.3911  -46.3645 C   0  0  0  0  0  0
  -26.4863   32.1389  -45.7144 C   0  0  0  0  0  0
  -26.6394   32.0698  -44.3613 N   0  0  0  0  0  0
  -27.3902   33.0742  -46.4488 C   0  0  0  0  0  0
  -27.9491   34.2057  -45.8307 C   0  0  0  0  0  0
  -28.7663   35.0762  -46.5531 C   0  0  0  0  0  0
  -29.0130   34.7921  -47.8947 C   0  0  0  0  0  0
  -28.5102   33.7003  -48.5206 N   0  0  0  0  0  0
  -27.7172   32.8688  -47.7989 C   0  0  0  0  0  0
  -30.0401   24.0869  -38.1518 H   0  0  0  0  0  0
  -29.0879   25.9092  -37.3420 H   0  0  0  0  0  0
  -27.3329   27.1089  -37.7401 H   0  0  0  0  0  0
  -25.6615   28.8688  -37.9810 H   0  0  0  0  0  0
  -25.3683   31.4220  -38.3434 H   0  0  0  0  0  0
  -24.7673   30.6443  -39.7807 H   0  0  0  0  0  0
  -26.6499   33.0211  -39.5801 H   0  0  0  0  0  0
  -25.1327   32.9312  -40.4139 H   0  0  0  0  0  0
  -27.0316   32.8839  -42.0203 H   0  0  0  0  0  0
  -28.5611   30.8688  -41.9809 H   0  0  0  0  0  0
  -28.7910   31.9884  -40.6589 H   0  0  0  0  0  0
  -29.7656   29.1873  -40.6034 H   0  0  0  0  0  0
  -25.4144   30.3870  -41.8223 H   0  0  0  0  0  0
  -23.8929   29.9898  -46.0118 H   0  0  0  0  0  0
  -25.3284   31.4632  -47.4285 H   0  0  0  0  0  0
  -27.7398   34.4233  -44.7935 H   0  0  0  0  0  0
  -29.1950   35.9496  -46.0847 H   0  0  0  0  0  0
  -29.6498   35.4327  -48.4872 H   0  0  0  0  0  0
  -27.3529   32.0075  -48.3388 H   0  0  0  0  0  0
  1  2  1  0  0  0
  1 28  1  0  0  0
  2  3  1  0  0  0
  2 29  1  0  0  0
  3  4  2  0  0  0
  3  5  1  0  0  0
  5  6  2  0  0  0
  5 14  1  0  0  0
  6  7  1  0  0  0
  6 30  1  0  0  0
  7  8  2  0  0  0
  7 31  1  0  0  0
  8  9  1  0  0  0
  8 13  1  0  0  0
  9 10  1  0  0  0
  9 32  1  0  0  0
  9 33  1  0  0  0
 10 11  1  0  0  0
 10 34  1  0  0  0
 10 35  1  0  0  0
 11 12  1  0  0  0
 11 15  1  0  0  0
 11 36  1  0  0  0
 12 13  1  0  0  0
 12 37  1  0  0  0
 12 38  1  0  0  0
 13 14  2  0  0  0
 14 39  1  0  0  0
 15 16  1  0  0  0
 15 40  1  0  0  0
 16 17  2  0  0  0
 16 21  1  0  0  0
 17 18  1  0  0  0
 18 19  2  0  0  0
 18 41  1  0  0  0
 19 20  1  0  0  0
 19 42  1  0  0  0
 20 21  2  0  0  0
 20 22  1  0  0  0
 22 23  2  0  0  0
 22 27  1  0  0  0
 23 24  1  0  0  0
 23 43  1  0  0  0
 24 25  2  0  0  0
 24 44  1  0  0  0
 25 26  1  0  0  0
 25 45  1  0  0  0
 26 27  2  0  0  0
 27 46  1  0  0  0
M  END
> <s_m_entry_id>
52902

> <s_m_entry_name>
dock_pv.121

> <s_m_Source_Path>
/home/csk/Desktop/cluster/DUD-E-result/hdac8

> <s_m_Source_File>
dock_pv.maegz

> <i_m_Source_File_Index>
121

> <chembl_id>
CHEMBL3357482

> <chembl_pref_name>
None

> <i_lp_mmshare_version>
53161

> <i_f3d_flags>
0

> <r_lp_tautomer_probability>
0.999999987636

> <s_lp_Force_Field>
OPLS_2005

> <r_lp_Energy>
21.649955

> <b_lp_Chiralities_Consistent>
1

> <s_lp_Variant>
CHEMBL3192_lig1049-1

> <s_i_glide_gridfile>
glide-grid_3f07

> <i_i_glide_lignum>
1137

> <i_i_glide_rotatable_bonds>
6

> <r_i_docking_score>
-7.90093337826935

> <r_i_glide_ligand_efficiency>
-0.292627162158124

> <r_i_glide_ligand_efficiency_sa>
-0.877881485509921

> <r_i_glide_ligand_efficiency_ln>
-1.83920703339422

> <r_i_glide_gscore>
-7.90093337826935

> <r_i_glide_lipo>
-1.28995144118168

> <r_i_glide_hbond>
-0.304

> <r_i_glide_metal>
-2.3

> <r_i_glide_rewards>
-1.25019881470161

> <r_i_glide_evdw>
-20.3943367004395

> <r_i_glide_ecoul>
-15.1447296142578

> <r_i_glide_erotb>
0.734643154774584

> <r_i_glide_esite>
-0.2

> <r_i_glide_emodel>
-55.0397593342232

> <r_i_glide_energy>
-35.5390663146973

> <r_i_glide_einternal>
1.34456956386566

> <i_i_glide_confnum>
43

> <i_i_glide_posenum>
158

> <r_i_glide_eff_state_penalty>
0

> <s_user_duplicate_titles>
CHEMBL3192_lig1049,CHEMBL3192_lig646

> <s_m_subgroup_title>
dock_pv

> <s_m_subgroupid>
dock_pv

> <b_m_subgroup_collapsed>
1

$$$$
CHEMBL3192_lig682
                    3D
 Schrodinger Suite 2021-1.
 46 48  0  0  1  0            999 V2000
  -27.4675   28.0705  -38.3810 C   0  0  0  0  0  0
  -28.6966   27.9822  -39.0272 C   0  0  0  0  0  0
  -29.0130   28.9590  -39.9810 C   0  0  0  0  0  0
  -26.6082   29.1299  -38.6425 C   0  0  0  0  0  0
  -26.9123   30.0742  -39.6119 C   0  0  0  0  0  0
  -28.1258   29.9867  -40.2925 C   0  0  0  0  0  0
  -29.6721   26.8690  -38.7110 C   0  0  0  0  0  0
  -29.7535   26.4690  -37.4317 N   0  0  0  0  0  0
  -30.4519   26.4690  -39.5810 O   0  0  0  0  0  0
  -30.6130   25.4000  -37.1183 O   0  0  0  0  0  0
  -25.9503   31.0656  -39.8497 N   0  0  0  0  0  0
  -25.8956   31.9352  -41.0276 C   0  0  1  0  0  0
  -24.8179   32.9950  -40.8520 C   0  0  0  0  0  0
  -24.2231   33.1657  -42.2331 C   0  0  0  0  0  0
  -24.5226   31.8975  -42.8936 N   0  0  0  0  0  0
  -25.4712   31.1444  -42.2874 C   0  0  0  0  0  0
  -25.9394   30.0690  -42.6719 O   0  0  0  0  0  0
  -23.9317   31.5217  -44.1807 C   0  0  0  0  0  0
  -24.1466   32.5400  -45.3161 C   0  0  0  0  0  0
  -25.5884   32.6596  -45.7871 C   0  0  0  0  0  0
  -26.3754   33.7331  -45.3613 C   0  0  0  0  0  0
  -27.6779   33.8707  -45.8337 C   0  0  0  0  0  0
  -28.1870   32.9361  -46.7321 C   0  0  0  0  0  0
  -27.4130   31.8535  -47.1463 C   0  0  0  0  0  0
  -26.1126   31.7125  -46.6702 C   0  0  0  0  0  0
  -27.1740   27.3333  -37.6473 H   0  0  0  0  0  0
  -29.9524   28.9271  -40.5122 H   0  0  0  0  0  0
  -25.6650   29.1805  -38.1190 H   0  0  0  0  0  0
  -28.3889   30.7036  -41.0546 H   0  0  0  0  0  0
  -29.1894   26.7844  -36.6484 H   0  0  0  0  0  0
  -30.0180   24.6540  -36.9831 H   0  0  0  0  0  0
  -25.2029   31.1705  -39.1774 H   0  0  0  0  0  0
  -26.8551   32.4128  -41.2288 H   0  0  0  0  0  0
  -25.2047   33.9358  -40.4573 H   0  0  0  0  0  0
  -24.0372   32.6698  -40.1594 H   0  0  0  0  0  0
  -23.1494   33.3548  -42.1924 H   0  0  0  0  0  0
  -24.6977   33.9891  -42.7677 H   0  0  0  0  0  0
  -22.8572   31.4700  -43.9990 H   0  0  0  0  0  0
  -24.2001   30.5147  -44.5059 H   0  0  0  0  0  0
  -23.7429   33.5160  -45.0427 H   0  0  0  0  0  0
  -23.5388   32.2405  -46.1711 H   0  0  0  0  0  0
  -25.9759   34.4689  -44.6792 H   0  0  0  0  0  0
  -28.2856   34.7058  -45.5176 H   0  0  0  0  0  0
  -29.1902   33.0566  -47.1151 H   0  0  0  0  0  0
  -27.8130   31.1325  -47.8433 H   0  0  0  0  0  0
  -25.5097   30.8791  -46.9998 H   0  0  0  0  0  0
  1  2  2  0  0  0
  1  4  1  0  0  0
  1 26  1  0  0  0
  2  3  1  0  0  0
  2  7  1  0  0  0
  3  6  2  0  0  0
  3 27  1  0  0  0
  4  5  2  0  0  0
  4 28  1  0  0  0
  5  6  1  0  0  0
  5 11  1  0  0  0
  6 29  1  0  0  0
  7  8  1  0  0  0
  7  9  2  0  0  0
  8 10  1  0  0  0
  8 30  1  0  0  0
 10 31  1  0  0  0
 11 12  1  0  0  0
 11 32  1  0  0  0
 12 13  1  0  0  0
 12 16  1  0  0  0
 12 33  1  0  0  0
 13 14  1  0  0  0
 13 34  1  0  0  0
 13 35  1  0  0  0
 14 15  1  0  0  0
 14 36  1  0  0  0
 14 37  1  0  0  0
 15 16  1  0  0  0
 15 18  1  0  0  0
 16 17  2  0  0  0
 18 19  1  0  0  0
 18 38  1  0  0  0
 18 39  1  0  0  0
 19 20  1  0  0  0
 19 40  1  0  0  0
 19 41  1  0  0  0
 20 21  2  0  0  0
 20 25  1  0  0  0
 21 22  1  0  0  0
 21 42  1  0  0  0
 22 23  2  0  0  0
 22 43  1  0  0  0
 23 24  1  0  0  0
 23 44  1  0  0  0
 24 25  2  0  0  0
 24 45  1  0  0  0
 25 46  1  0  0  0
M  END
> <s_m_entry_id>
52904

> <s_m_entry_name>
dock_pv.123

> <s_m_Source_Path>
/home/csk/Desktop/cluster/DUD-E-result/hdac8

> <s_m_Source_File>
dock_pv.maegz

> <i_m_Source_File_Index>
123

> <chembl_id>
CHEMBL3415452

> <chembl_pref_name>
None

> <i_lp_mmshare_version>
53161

> <i_f3d_flags>
0

> <r_lp_tautomer_probability>
1

> <s_lp_Force_Field>
OPLS_2005

> <r_lp_Energy>
35.372828

> <b_lp_Chiralities_Consistent>
1

> <s_lp_Variant>
CHEMBL3192_lig682-2

> <s_i_glide_gridfile>
glide-grid_3f07

> <i_i_glide_lignum>
715

> <i_i_glide_rotatable_bonds>
8

> <r_i_docking_score>
-7.89389990179137

> <r_i_glide_ligand_efficiency>
-0.315755996071655

> <r_i_glide_ligand_efficiency_sa>
-0.923276132469953

> <r_i_glide_ligand_efficiency_ln>
-1.8710908378153

> <r_i_glide_gscore>
-7.89389990179137

> <r_i_glide_lipo>
-1.30728652314787

> <r_i_glide_hbond>
-0.608

> <r_i_glide_metal>
-2.3

> <r_i_glide_rewards>
-1.28861303593346

> <r_i_glide_evdw>
-23.072681427002

> <r_i_glide_ecoul>
-14.6376476287842

> <r_i_glide_erotb>
1.15005518100787

> <r_i_glide_esite>
-0.190774308050184

> <r_i_glide_emodel>
-59.0526741334139

> <r_i_glide_energy>
-37.7103290557861

> <r_i_glide_einternal>
3.4739990234375

> <i_i_glide_confnum>
36

> <i_i_glide_posenum>
222

> <r_i_glide_eff_state_penalty>
0

> <s_user_duplicate_titles>
CHEMBL3192_lig682

> <s_m_subgroup_title>
dock_pv

> <s_m_subgroupid>
dock_pv

> <b_m_subgroup_collapsed>
1

$$$$
CHEMBL3192_lig566
                    3D
 Schrodinger Suite 2021-1.
 57 58  0  0  1  0            999 V2000
  -28.2105   33.4083  -46.7396 C   0  0  0  0  0  0
  -27.8537   32.6132  -47.8267 C   0  0  0  0  0  0
  -26.9785   31.5390  -47.6568 C   0  0  0  0  0  0
  -26.4429   31.2772  -46.3926 C   0  0  0  0  0  0
  -26.7987   32.0728  -45.2913 C   0  0  0  0  0  0
  -27.6815   33.1412  -45.4780 C   0  0  0  0  0  0
  -26.3009   31.8964  -43.9896 N   0  0  0  0  0  0
  -25.6492   30.8453  -43.4441 C   0  0  0  0  0  0
  -25.1453   30.9953  -41.9765 C   0  0  2  0  0  0
  -25.4222   29.7801  -44.0216 O   0  0  0  0  0  0
  -25.5945   29.8068  -41.0877 C   0  0  0  0  0  0
  -25.4512   32.2791  -41.3243 N   0  0  0  0  0  0
  -27.0669   29.8166  -40.6354 C   0  0  0  0  0  0
  -27.4045   28.5924  -39.7668 C   0  0  0  0  0  0
  -24.9281   33.4804  -41.6328 C   0  0  0  0  0  0
  -25.5672   34.7272  -40.9567 C   0  0  2  0  0  0
  -23.9580   33.5946  -42.3816 O   0  0  0  0  0  0
  -28.7500   28.7465  -39.0451 C   0  0  0  0  0  0
  -29.0281   27.6398  -37.9965 C   0  0  0  0  0  0
  -29.9112   26.4688  -38.4469 C   0  0  0  0  0  0
  -30.1842   25.5366  -37.5227 N   0  0  0  0  0  0
  -30.4060   26.4690  -39.5809 O   0  0  0  0  0  0
  -31.0130   24.4690  -37.8851 O   0  0  0  0  0  0
  -26.6004   30.6680  -48.8412 C   0  0  0  0  0  0
  -27.0221   34.5755  -40.8018 N   0  0  0  0  0  0
  -27.7760   35.1399  -41.7630 C   0  0  0  0  0  0
  -26.8304   36.0399  -42.5547 C   0  0  0  0  0  0
  -25.4958   35.9888  -41.8216 C   0  0  0  0  0  0
  -28.9726   34.9621  -41.9785 O   0  0  0  0  0  0
  -28.9004   34.2283  -46.8768 H   0  0  0  0  0  0
  -28.2784   32.8217  -48.7982 H   0  0  0  0  0  0
  -25.7424   30.4646  -46.2898 H   0  0  0  0  0  0
  -27.9730   33.7669  -44.6469 H   0  0  0  0  0  0
  -26.4420   32.6815  -43.3740 H   0  0  0  0  0  0
  -24.0570   30.9457  -42.0510 H   0  0  0  0  0  0
  -25.4129   28.8691  -41.6054 H   0  0  0  0  0  0
  -24.9504   29.7723  -40.2070 H   0  0  0  0  0  0
  -26.1805   32.2465  -40.6294 H   0  0  0  0  0  0
  -27.2598   30.7241  -40.0626 H   0  0  0  0  0  0
  -27.7311   29.8447  -41.5011 H   0  0  0  0  0  0
  -27.3999   27.6876  -40.3780 H   0  0  0  0  0  0
  -26.6203   28.4599  -39.0193 H   0  0  0  0  0  0
  -25.0936   34.8662  -39.9822 H   0  0  0  0  0  0
  -28.7403   29.6997  -38.5176 H   0  0  0  0  0  0
  -29.5485   28.8427  -39.7815 H   0  0  0  0  0  0
  -28.0921   27.2694  -37.5810 H   0  0  0  0  0  0
  -29.5793   28.1055  -37.1804 H   0  0  0  0  0  0
  -29.8335   25.4732  -36.5755 H   0  0  0  0  0  0
  -30.4122   23.7079  -37.9205 H   0  0  0  0  0  0
  -26.8556   31.1430  -49.7900 H   0  0  0  0  0  0
  -25.5252   30.4866  -48.8481 H   0  0  0  0  0  0
  -27.1046   29.7033  -48.7817 H   0  0  0  0  0  0
  -27.4112   34.0376  -40.0445 H   0  0  0  0  0  0
  -26.7339   35.6233  -43.5578 H   0  0  0  0  0  0
  -27.2195   37.0540  -42.6486 H   0  0  0  0  0  0
  -24.6254   36.0479  -42.4777 H   0  0  0  0  0  0
  -25.4073   36.8573  -41.1656 H   0  0  0  0  0  0
  1  2  2  0  0  0
  1  6  1  0  0  0
  1 30  1  0  0  0
  2  3  1  0  0  0
  2 31  1  0  0  0
  3  4  2  0  0  0
  3 24  1  0  0  0
  4  5  1  0  0  0
  4 32  1  0  0  0
  5  6  2  0  0  0
  5  7  1  0  0  0
  6 33  1  0  0  0
  7  8  1  0  0  0
  7 34  1  0  0  0
  8  9  1  0  0  0
  8 10  2  0  0  0
  9 11  1  0  0  0
  9 12  1  0  0  0
  9 35  1  0  0  0
 11 13  1  0  0  0
 11 36  1  0  0  0
 11 37  1  0  0  0
 12 15  1  0  0  0
 12 38  1  0  0  0
 13 14  1  0  0  0
 13 39  1  0  0  0
 13 40  1  0  0  0
 14 18  1  0  0  0
 14 41  1  0  0  0
 14 42  1  0  0  0
 15 16  1  0  0  0
 15 17  2  0  0  0
 16 25  1  0  0  0
 16 28  1  0  0  0
 16 43  1  0  0  0
 18 19  1  0  0  0
 18 44  1  0  0  0
 18 45  1  0  0  0
 19 20  1  0  0  0
 19 46  1  0  0  0
 19 47  1  0  0  0
 20 21  1  0  0  0
 20 22  2  0  0  0
 21 23  1  0  0  0
 21 48  1  0  0  0
 23 49  1  0  0  0
 24 50  1  0  0  0
 24 51  1  0  0  0
 24 52  1  0  0  0
 25 26  1  0  0  0
 25 53  1  0  0  0
 26 27  1  0  0  0
 26 29  2  0  0  0
 27 28  1  0  0  0
 27 54  1  0  0  0
 27 55  1  0  0  0
 28 56  1  0  0  0
 28 57  1  0  0  0
M  END
> <s_m_entry_id>
52905

> <s_m_entry_name>
dock_pv.124

> <s_m_Source_Path>
/home/csk/Desktop/cluster/DUD-E-result/hdac8

> <s_m_Source_File>
dock_pv.maegz

> <i_m_Source_File_Index>
124

> <chembl_id>
CHEMBL3098604

> <chembl_pref_name>
None

> <i_lp_mmshare_version>
53161

> <i_f3d_flags>
0

> <r_lp_tautomer_probability>
1

> <s_lp_Force_Field>
OPLS_2005

> <r_lp_Energy>
37.863897

> <b_lp_Chiralities_Consistent>
1

> <s_lp_Variant>
CHEMBL3192_lig566-1

> <s_i_glide_gridfile>
glide-grid_3f07

> <i_i_glide_lignum>
587

> <i_i_glide_rotatable_bonds>
14

> <r_i_docking_score>
-7.88978938304749

> <r_i_glide_ligand_efficiency>
-0.272061702863707

> <r_i_glide_ligand_efficiency_sa>
-0.835859746394713

> <r_i_glide_ligand_efficiency_ln>
-1.80656170092144

> <r_i_glide_gscore>
-7.88978938304749

> <r_i_glide_lipo>
-1.25195648966095

> <r_i_glide_hbond>
-0.304

> <r_i_glide_metal>
-2.3

> <r_i_glide_rewards>
-0.73397094119906

> <r_i_glide_evdw>
-30.7740268707275

> <r_i_glide_ecoul>
-19.7487926483154

> <r_i_glide_erotb>
1.44093630980119

> <r_i_glide_esite>
-0.239778021204973

> <r_i_glide_emodel>
-79.3971488812631

> <r_i_glide_energy>
-50.522819519043

> <r_i_glide_einternal>
7.59223222732544

> <i_i_glide_confnum>
36

> <i_i_glide_posenum>
337

> <r_i_glide_eff_state_penalty>
0

> <s_user_duplicate_titles>
CHEMBL3192_lig566

> <s_m_subgroup_title>
dock_pv

> <s_m_subgroupid>
dock_pv

> <b_m_subgroup_collapsed>
1

$$$$
CHEMBL3192_lig2
                    3D
 Schrodinger Suite 2021-1.
 57 59  0  0  1  0            999 V2000
  -25.9157   33.8972  -43.2988 N   0  0  0  0  0  0
  -25.5261   35.1805  -43.9039 C   0  0  0  0  0  0
  -24.2992   35.7717  -43.1614 C   0  0  0  0  0  0
  -24.6268   36.0001  -41.7474 N   0  0  0  0  0  0
  -25.0024   34.7185  -41.1373 C   0  0  0  0  0  0
  -26.2258   34.1269  -41.8768 C   0  0  0  0  0  0
  -23.4872   36.5712  -41.0372 C   0  0  0  0  0  0
  -25.0173   30.7603  -42.2390 C   0  0  0  0  0  0
  -25.6344   30.6631  -43.4338 C   0  0  0  0  0  0
  -24.9969   31.0658  -44.6752 C   0  0  0  0  0  0
  -25.8478   31.7657  -45.6973 C   0  0  0  0  0  0
  -23.8455   30.6942  -44.9188 O   0  0  0  0  0  0
  -26.8029   32.7709  -45.3843 C   0  0  0  0  0  0
  -27.5714   33.3279  -46.4153 C   0  0  0  0  0  0
  -27.3887   32.9391  -47.7391 C   0  0  0  0  0  0
  -26.4159   31.9982  -48.0556 C   0  0  0  0  0  0
  -25.6448   31.4294  -47.0453 C   0  0  0  0  0  0
  -27.0753   33.2948  -43.9650 C   0  0  0  0  0  0
  -25.0122   30.8662  -39.7659 C   0  0  0  0  0  0
  -25.6144   30.4037  -40.9387 C   0  0  0  0  0  0
  -26.7671   29.6117  -40.8386 C   0  0  0  0  0  0
  -27.2748   29.2117  -39.5985 C   0  0  0  0  0  0
  -26.6404   29.6721  -38.4436 C   0  0  0  0  0  0
  -25.5277   30.5076  -38.5240 C   0  0  0  0  0  0
  -28.4226   28.2826  -39.5517 C   0  0  0  0  0  0
  -28.6734   27.3655  -38.5860 C   0  0  0  0  0  0
  -29.8133   26.4730  -38.6311 C   0  0  0  0  0  0
  -29.9582   25.6896  -37.5511 N   0  0  0  0  0  0
  -30.6105   26.4691  -39.5810 O   0  0  0  0  0  0
  -31.0127   24.7610  -37.5314 O   0  0  0  0  0  0
  -25.2670   35.0272  -44.9524 H   0  0  0  0  0  0
  -26.3561   35.8897  -43.8839 H   0  0  0  0  0  0
  -24.0166   36.7167  -43.6266 H   0  0  0  0  0  0
  -23.4422   35.1020  -43.2585 H   0  0  0  0  0  0
  -25.2543   34.8722  -40.0861 H   0  0  0  0  0  0
  -24.1688   34.0132  -41.1590 H   0  0  0  0  0  0
  -27.0815   34.7961  -41.7692 H   0  0  0  0  0  0
  -26.5009   33.1856  -41.4000 H   0  0  0  0  0  0
  -23.2005   37.5283  -41.4737 H   0  0  0  0  0  0
  -23.7415   36.7519  -39.9918 H   0  0  0  0  0  0
  -22.6189   35.9107  -41.0640 H   0  0  0  0  0  0
  -23.9993   31.1290  -42.2012 H   0  0  0  0  0  0
  -26.6503   30.3142  -43.5281 H   0  0  0  0  0  0
  -28.3188   34.0769  -46.1967 H   0  0  0  0  0  0
  -27.9933   33.3768  -48.5203 H   0  0  0  0  0  0
  -26.2615   31.7087  -49.0845 H   0  0  0  0  0  0
  -24.8948   30.7040  -47.3232 H   0  0  0  0  0  0
  -27.9063   34.0035  -43.9720 H   0  0  0  0  0  0
  -27.4137   32.4501  -43.3701 H   0  0  0  0  0  0
  -24.1376   31.5008  -39.8056 H   0  0  0  0  0  0
  -27.2536   29.2682  -41.7356 H   0  0  0  0  0  0
  -27.0132   29.3863  -37.4770 H   0  0  0  0  0  0
  -25.0525   30.8695  -37.6242 H   0  0  0  0  0  0
  -29.1079   28.3875  -40.3810 H   0  0  0  0  0  0
  -28.0080   27.2690  -37.7402 H   0  0  0  0  0  0
  -29.3637   25.6358  -36.7353 H   0  0  0  0  0  0
  -30.5639   23.9057  -37.5810 H   0  0  0  0  0  0
  1  2  1  0  0  0
  1  6  1  0  0  0
  1 18  1  0  0  0
  2  3  1  0  0  0
  2 31  1  0  0  0
  2 32  1  0  0  0
  3  4  1  0  0  0
  3 33  1  0  0  0
  3 34  1  0  0  0
  4  5  1  0  0  0
  4  7  1  0  0  0
  5  6  1  0  0  0
  5 35  1  0  0  0
  5 36  1  0  0  0
  6 37  1  0  0  0
  6 38  1  0  0  0
  7 39  1  0  0  0
  7 40  1  0  0  0
  7 41  1  0  0  0
  8  9  2  0  0  0
  8 20  1  0  0  0
  8 42  1  0  0  0
  9 10  1  0  0  0
  9 43  1  0  0  0
 10 11  1  0  0  0
 10 12  2  0  0  0
 11 17  1  0  0  0
 11 13  2  0  0  0
 13 18  1  0  0  0
 13 14  1  0  0  0
 14 15  2  0  0  0
 14 44  1  0  0  0
 15 16  1  0  0  0
 15 45  1  0  0  0
 16 17  2  0  0  0
 16 46  1  0  0  0
 17 47  1  0  0  0
 18 48  1  0  0  0
 18 49  1  0  0  0
 19 20  2  0  0  0
 19 24  1  0  0  0
 19 50  1  0  0  0
 20 21  1  0  0  0
 21 22  2  0  0  0
 21 51  1  0  0  0
 22 23  1  0  0  0
 22 25  1  0  0  0
 23 24  2  0  0  0
 23 52  1  0  0  0
 24 53  1  0  0  0
 25 26  2  0  0  0
 25 54  1  0  0  0
 26 27  1  0  0  0
 26 55  1  0  0  0
 27 28  1  0  0  0
 27 29  2  0  0  0
 28 30  1  0  0  0
 28 56  1  0  0  0
 30 57  1  0  0  0
M  END
> <s_m_entry_id>
52906

> <s_m_entry_name>
dock_pv.125

> <s_m_Source_Path>
/home/csk/Desktop/cluster/DUD-E-result/hdac8

> <s_m_Source_File>
dock_pv.maegz

> <i_m_Source_File_Index>
125

> <chembl_id>
CHEMBL577946

> <chembl_pref_name>
None

> <i_lp_mmshare_version>
53161

> <i_f3d_flags>
0

> <r_lp_tautomer_probability>
1

> <s_lp_Force_Field>
OPLS_2005

> <r_lp_Energy>
54.702879

> <b_lp_Chiralities_Consistent>
1

> <s_lp_Variant>
CHEMBL3192_lig2-1

> <s_i_glide_gridfile>
glide-grid_3f07

> <i_i_glide_lignum>
2

> <i_i_glide_rotatable_bonds>
9

> <r_i_docking_score>
-7.88815184791536

> <r_i_glide_ligand_efficiency>
-0.262938394930512

> <r_i_glide_ligand_efficiency_sa>
-0.817010726865149

> <r_i_glide_ligand_efficiency_ln>
-1.79227404814467

> <r_i_glide_gscore>
-7.88815184791536

> <r_i_glide_lipo>
-1.6413031377918

> <r_i_glide_hbond>
-0.307047929712122

> <r_i_glide_metal>
-2.3

> <r_i_glide_rewards>
-0.81607013221805

> <r_i_glide_evdw>
-30.6875381469727

> <r_i_glide_ecoul>
-14.0177345275879

> <r_i_glide_erotb>
0.956234389297576

> <r_i_glide_esite>
-0.142927951004151

> <r_i_glide_emodel>
-63.8679608526145

> <r_i_glide_energy>
-44.7052726745605

> <r_i_glide_einternal>
15.5648107528687

> <i_i_glide_confnum>
1

> <i_i_glide_posenum>
287

> <r_i_glide_eff_state_penalty>
0

> <s_user_duplicate_titles>
CHEMBL3192_lig2

> <s_m_subgroup_title>
dock_pv

> <s_m_subgroupid>
dock_pv

> <b_m_subgroup_collapsed>
1

$$$$
CHEMBL3192_lig813
                    3D
 Schrodinger Suite 2021-1.
 33 34  0  0  1  0            999 V2000
  -23.0469   31.9500  -41.1674 C   0  0  0  0  0  0
  -23.9804   32.4990  -40.0790 C   0  0  0  0  0  0
  -25.3726   32.1741  -40.3790 N   0  0  0  0  0  0
  -26.2322   32.8679  -41.2125 C   0  0  0  0  0  0
  -25.8529   34.1455  -41.9296 C   0  0  0  0  0  0
  -27.4129   32.3124  -41.3224 N   0  0  0  0  0  0
  -27.3425   31.1935  -40.5409 C   0  0  0  0  0  0
  -28.3122   30.2044  -40.3379 C   0  0  0  0  0  0
  -28.0252   29.1486  -39.4646 C   0  0  0  0  0  0
  -29.0441   28.0978  -39.2951 C   0  0  0  0  0  0
  -29.1039   27.1407  -38.3406 C   0  0  0  0  0  0
  -30.1827   26.1784  -38.2713 C   0  0  0  0  0  0
  -31.0130   26.0690  -39.1810 O   0  0  0  0  0  0
  -30.2130   25.4493  -37.1446 N   0  0  0  0  0  0
  -31.2095   24.4690  -37.0126 O   0  0  0  0  0  0
  -26.8042   29.1171  -38.7830 C   0  0  0  0  0  0
  -25.8022   30.0690  -38.9891 C   0  0  0  0  0  0
  -26.0896   31.0978  -39.8911 C   0  0  0  0  0  0
  -22.0065   32.1737  -40.9302 H   0  0  0  0  0  0
  -23.1398   30.8690  -41.2551 H   0  0  0  0  0  0
  -23.2628   32.3853  -42.1431 H   0  0  0  0  0  0
  -23.8798   33.5811  -39.9810 H   0  0  0  0  0  0
  -23.7218   32.0690  -39.1108 H   0  0  0  0  0  0
  -26.6733   34.5433  -42.5275 H   0  0  0  0  0  0
  -25.5662   34.9272  -41.2259 H   0  0  0  0  0  0
  -25.0128   33.9952  -42.6067 H   0  0  0  0  0  0
  -29.2568   30.2601  -40.8583 H   0  0  0  0  0  0
  -29.8148   28.1285  -40.0477 H   0  0  0  0  0  0
  -28.3444   27.0782  -37.5810 H   0  0  0  0  0  0
  -29.5673   25.4750  -36.3669 H   0  0  0  0  0  0
  -30.7406   23.6425  -37.1810 H   0  0  0  0  0  0
  -26.6020   28.3083  -38.0979 H   0  0  0  0  0  0
  -24.8498   29.9981  -38.4835 H   0  0  0  0  0  0
  1  2  1  0  0  0
  1 19  1  0  0  0
  1 20  1  0  0  0
  1 21  1  0  0  0
  2  3  1  0  0  0
  2 22  1  0  0  0
  2 23  1  0  0  0
  3  4  1  0  0  0
  3 18  1  0  0  0
  4  5  1  0  0  0
  4  6  2  0  0  0
  5 24  1  0  0  0
  5 25  1  0  0  0
  5 26  1  0  0  0
  6  7  1  0  0  0
  7  8  2  0  0  0
  7 18  1  0  0  0
  8  9  1  0  0  0
  8 27  1  0  0  0
  9 10  1  0  0  0
  9 16  2  0  0  0
 10 11  2  0  0  0
 10 28  1  0  0  0
 11 12  1  0  0  0
 11 29  1  0  0  0
 12 13  2  0  0  0
 12 14  1  0  0  0
 14 15  1  0  0  0
 14 30  1  0  0  0
 15 31  1  0  0  0
 16 17  1  0  0  0
 16 32  1  0  0  0
 17 18  2  0  0  0
 17 33  1  0  0  0
M  END
> <s_m_entry_id>
52907

> <s_m_entry_name>
dock_pv.126

> <s_m_Source_Path>
/home/csk/Desktop/cluster/DUD-E-result/hdac8

> <s_m_Source_File>
dock_pv.maegz

> <i_m_Source_File_Index>
126

> <chembl_id>
CHEMBL3648313

> <chembl_pref_name>
None

> <i_lp_mmshare_version>
53161

> <i_f3d_flags>
0

> <r_lp_tautomer_probability>
1

> <s_lp_Force_Field>
OPLS_2005

> <r_lp_Energy>
17.64346

> <b_lp_Chiralities_Consistent>
1

> <s_lp_Variant>
CHEMBL3192_lig813-1

> <s_i_glide_gridfile>
glide-grid_3f07

> <i_i_glide_lignum>
867

> <i_i_glide_rotatable_bonds>
5

> <r_i_docking_score>
-7.87822505497519

> <r_i_glide_ligand_efficiency>
-0.437679169720844

> <r_i_glide_ligand_efficiency_sa>
-1.14704391636527

> <r_i_glide_ligand_efficiency_ln>
-2.02505712699178

> <r_i_glide_gscore>
-7.87822505497519

> <r_i_glide_lipo>
-0.784007988174029

> <r_i_glide_hbond>
-0.237509270329379

> <r_i_glide_metal>
-2.3

> <r_i_glide_rewards>
-1.97698814776565

> <r_i_glide_evdw>
-28.1021633148193

> <r_i_glide_ecoul>
-12.3551416397095

> <r_i_glide_erotb>
0.867885756704246

> <r_i_glide_esite>
-0.189225993712991

> <r_i_glide_emodel>
-64.4189391546469

> <r_i_glide_energy>
-40.4573049545288

> <r_i_glide_einternal>
1.46382510662079

> <i_i_glide_confnum>
1

> <i_i_glide_posenum>
64

> <r_i_glide_eff_state_penalty>
0

> <s_user_duplicate_titles>
CHEMBL3192_lig813

> <s_m_subgroup_title>
dock_pv

> <s_m_subgroupid>
dock_pv

> <b_m_subgroup_collapsed>
1

$$$$
CHEMBL3192_lig690
                    3D
 Schrodinger Suite 2021-1.
 41 43  0  0  1  0            999 V2000
  -28.7184   29.2960  -40.1935 C   0  0  0  0  0  0
  -28.4572   28.4011  -39.1441 C   0  0  0  0  0  0
  -27.3041   28.5951  -38.3810 C   0  0  0  0  0  0
  -27.8568   30.3643  -40.4542 C   0  0  0  0  0  0
  -26.7467   30.5840  -39.6320 C   0  0  0  0  0  0
  -26.4742   29.6852  -38.6090 C   0  0  0  0  0  0
  -29.4124   27.2690  -38.8250 C   0  0  0  0  0  0
  -29.4131   26.7996  -37.5790 N   0  0  0  0  0  0
  -30.2344   26.8690  -39.6434 O   0  0  0  0  0  0
  -30.3512   25.8138  -37.2199 O   0  0  0  0  0  0
  -25.8620   31.6690  -39.7472 N   0  0  0  0  0  0
  -25.8332   32.6782  -40.8028 C   0  0  2  0  0  0
  -27.0526   33.5769  -40.9295 C   0  0  0  0  0  0
  -27.1693   33.7838  -42.4423 C   0  0  0  0  0  0
  -26.5792   32.6292  -43.1252 N   0  0  0  0  0  0
  -25.5587   32.1317  -42.2017 C   0  0  0  0  0  0
  -26.6130   32.3591  -44.5045 C   0  0  0  0  0  0
  -25.7104   31.4456  -45.0655 C   0  0  0  0  0  0
  -27.5297   32.7529  -46.7212 C   0  0  0  0  0  0
  -27.5151   33.0178  -45.3521 C   0  0  0  0  0  0
  -26.6215   31.8429  -47.2572 C   0  0  0  0  0  0
  -25.7079   31.1967  -46.4326 C   0  0  0  0  0  0
  -26.6132   31.5133  -48.9513 Cl  0  0  0  0  0  0
  -29.5994   29.1859  -40.8082 H   0  0  0  0  0  0
  -27.0447   27.9164  -37.5815 H   0  0  0  0  0  0
  -28.0774   31.0267  -41.2763 H   0  0  0  0  0  0
  -25.6032   29.8239  -37.9855 H   0  0  0  0  0  0
  -28.8369   27.1145  -36.8018 H   0  0  0  0  0  0
  -30.9454   26.2709  -36.6168 H   0  0  0  0  0  0
  -25.3602   31.9300  -38.9061 H   0  0  0  0  0  0
  -24.9722   33.2927  -40.5295 H   0  0  0  0  0  0
  -27.9554   33.1365  -40.5111 H   0  0  0  0  0  0
  -26.8927   34.5264  -40.4170 H   0  0  0  0  0  0
  -28.2130   33.8752  -42.7377 H   0  0  0  0  0  0
  -26.7077   34.7109  -42.7870 H   0  0  0  0  0  0
  -24.5619   32.4308  -42.5295 H   0  0  0  0  0  0
  -25.5119   31.0418  -42.2172 H   0  0  0  0  0  0
  -24.9914   30.9261  -44.4511 H   0  0  0  0  0  0
  -28.2387   33.2555  -47.3633 H   0  0  0  0  0  0
  -28.2200   33.7333  -44.9583 H   0  0  0  0  0  0
  -24.9973   30.4991  -46.8472 H   0  0  0  0  0  0
  1  2  2  0  0  0
  1  4  1  0  0  0
  1 24  1  0  0  0
  2  3  1  0  0  0
  2  7  1  0  0  0
  3  6  2  0  0  0
  3 25  1  0  0  0
  4  5  2  0  0  0
  4 26  1  0  0  0
  5  6  1  0  0  0
  5 11  1  0  0  0
  6 27  1  0  0  0
  7  8  1  0  0  0
  7  9  2  0  0  0
  8 10  1  0  0  0
  8 28  1  0  0  0
 10 29  1  0  0  0
 11 12  1  0  0  0
 11 30  1  0  0  0
 12 13  1  0  0  0
 12 16  1  0  0  0
 12 31  1  0  0  0
 13 14  1  0  0  0
 13 32  1  0  0  0
 13 33  1  0  0  0
 14 15  1  0  0  0
 14 34  1  0  0  0
 14 35  1  0  0  0
 15 16  1  0  0  0
 15 17  1  0  0  0
 16 36  1  0  0  0
 16 37  1  0  0  0
 17 18  2  0  0  0
 17 20  1  0  0  0
 18 22  1  0  0  0
 18 38  1  0  0  0
 19 21  1  0  0  0
 19 20  2  0  0  0
 19 39  1  0  0  0
 20 40  1  0  0  0
 21 22  2  0  0  0
 21 23  1  0  0  0
 22 41  1  0  0  0
M  END
> <s_m_entry_id>
52908

> <s_m_entry_name>
dock_pv.127

> <s_m_Source_Path>
/home/csk/Desktop/cluster/DUD-E-result/hdac8

> <s_m_Source_File>
dock_pv.maegz

> <i_m_Source_File_Index>
127

> <chembl_id>
CHEMBL3415625

> <chembl_pref_name>
None

> <i_lp_mmshare_version>
53161

> <i_f3d_flags>
0

> <r_lp_tautomer_probability>
1

> <s_lp_Force_Field>
OPLS_2005

> <r_lp_Energy>
45.393821

> <b_lp_Chiralities_Consistent>
1

> <s_lp_Variant>
CHEMBL3192_lig690-1

> <s_i_glide_gridfile>
glide-grid_3f07

> <i_i_glide_lignum>
730

> <i_i_glide_rotatable_bonds>
6

> <r_i_docking_score>
-7.87452846909602

> <r_i_glide_ligand_efficiency>
-0.342370803004175

> <r_i_glide_ligand_efficiency_sa>
-0.973657020511205

> <r_i_glide_ligand_efficiency_ln>
-1.90413238610389

> <r_i_glide_gscore>
-7.87452846909602

> <r_i_glide_lipo>
-1.63157027301419

> <r_i_glide_hbond>
-0.608

> <r_i_glide_metal>
-1.85595122126994

> <r_i_glide_rewards>
-1.37183451397515

> <r_i_glide_evdw>
-24.4722118377686

> <r_i_glide_ecoul>
-11.8720979690552

> <r_i_glide_erotb>
0.855037880567203

> <r_i_glide_esite>
-0.257785054157234

> <r_i_glide_emodel>
-52.9812273845093

> <r_i_glide_energy>
-36.3443098068237

> <r_i_glide_einternal>
6.95324277877808

> <i_i_glide_confnum>
19

> <i_i_glide_posenum>
370

> <r_i_glide_eff_state_penalty>
0

> <s_user_duplicate_titles>
CHEMBL3192_lig690

> <s_m_subgroup_title>
dock_pv

> <s_m_subgroupid>
dock_pv

> <b_m_subgroup_collapsed>
1

$$$$
CHEMBL3192_lig644
                    3D
 Schrodinger Suite 2021-1.
 48 51  0  0  1  0            999 V2000
  -28.7081   28.0095  -39.1753 C   0  0  0  0  0  0
  -27.5190   27.9500  -38.4566 C   0  0  0  0  0  0
  -26.6130   28.9990  -38.5046 C   0  0  0  0  0  0
  -28.9244   29.1477  -39.9810 C   0  0  0  0  0  0
  -29.7103   26.8690  -39.1450 C   0  0  0  0  0  0
  -30.6130   26.8690  -39.9810 O   0  0  0  0  0  0
  -29.6550   25.9503  -38.1715 N   0  0  0  0  0  0
  -30.5577   24.8690  -38.2254 O   0  0  0  0  0  0
  -27.9935   30.1951  -40.0639 C   0  0  0  0  0  0
  -26.8549   30.1441  -39.2464 C   0  0  0  0  0  0
  -25.9075   31.3307  -39.1591 C   0  0  0  0  0  0
  -25.9548   32.2037  -40.4152 C   0  0  0  0  0  0
  -27.3404   32.5248  -40.7809 N   0  0  2  0  0  0
  -28.1182   31.3182  -41.1008 C   0  0  0  0  0  0
  -27.4129   33.5960  -41.7892 C   0  0  0  0  0  0
  -26.6633   33.3229  -43.0915 C   0  0  0  0  0  0
  -25.3214   33.1714  -43.4164 C   0  0  0  0  0  0
  -25.2528   32.9341  -44.7855 C   0  0  0  0  0  0
  -26.5478   33.0217  -45.2699 C   0  0  0  0  0  0
  -27.4022   33.2508  -44.2329 O   0  0  0  0  0  0
  -27.1124   32.9402  -46.6420 C   0  0  0  0  0  0
  -28.2052   33.7296  -47.0056 C   0  0  0  0  0  0
  -28.6785   33.7058  -48.3147 C   0  0  0  0  0  0
  -28.0902   32.8690  -49.2598 C   0  0  0  0  0  0
  -27.0114   32.0445  -48.9101 C   0  0  0  0  0  0
  -26.5225   32.1028  -47.5950 C   0  0  0  0  0  0
  -26.4119   31.1244  -49.9052 N   0  3  0  0  0  0
  -26.9253   31.0403  -51.0168 O   0  0  0  0  0  0
  -25.4250   30.4690  -49.5810 O   0  5  0  0  0  0
  -27.2717   27.0908  -37.8577 H   0  0  0  0  0  0
  -25.6773   28.9186  -37.9810 H   0  0  0  0  0  0
  -29.8067   29.2121  -40.6025 H   0  0  0  0  0  0
  -29.0130   25.9046  -37.3914 H   0  0  0  0  0  0
  -29.9906   24.0832  -38.1690 H   0  0  0  0  0  0
  -26.1999   31.9386  -38.3029 H   0  0  0  0  0  0
  -24.8828   31.0119  -38.9638 H   0  0  0  0  0  0
  -25.4022   31.7400  -41.2319 H   0  0  0  0  0  0
  -25.4258   33.1307  -40.1836 H   0  0  0  0  0  0
  -27.8130   30.9245  -42.0723 H   0  0  0  0  0  0
  -29.1655   31.6058  -41.1806 H   0  0  0  0  0  0
  -28.4602   33.8206  -41.9897 H   0  0  0  0  0  0
  -27.0130   34.5033  -41.3338 H   0  0  0  0  0  0
  -24.4858   33.2144  -42.7330 H   0  0  0  0  0  0
  -24.3574   32.7641  -45.3656 H   0  0  0  0  0  0
  -28.6730   34.3830  -46.2833 H   0  0  0  0  0  0
  -29.5197   34.3244  -48.5928 H   0  0  0  0  0  0
  -28.4936   32.8499  -50.2624 H   0  0  0  0  0  0
  -25.6820   31.4883  -47.3042 H   0  0  0  0  0  0
  1  2  2  0  0  0
  1  4  1  0  0  0
  1  5  1  0  0  0
  2  3  1  0  0  0
  2 30  1  0  0  0
  3 10  2  0  0  0
  3 31  1  0  0  0
  4  9  2  0  0  0
  4 32  1  0  0  0
  5  6  2  0  0  0
  5  7  1  0  0  0
  7  8  1  0  0  0
  7 33  1  0  0  0
  8 34  1  0  0  0
  9 10  1  0  0  0
  9 14  1  0  0  0
 10 11  1  0  0  0
 11 12  1  0  0  0
 11 35  1  0  0  0
 11 36  1  0  0  0
 12 13  1  0  0  0
 12 37  1  0  0  0
 12 38  1  0  0  0
 13 14  1  0  0  0
 13 15  1  0  0  0
 14 39  1  0  0  0
 14 40  1  0  0  0
 15 16  1  0  0  0
 15 41  1  0  0  0
 15 42  1  0  0  0
 16 17  2  0  0  0
 16 20  1  0  0  0
 17 18  1  0  0  0
 17 43  1  0  0  0
 18 19  2  0  0  0
 18 44  1  0  0  0
 19 20  1  0  0  0
 19 21  1  0  0  0
 21 22  2  0  0  0
 21 26  1  0  0  0
 22 23  1  0  0  0
 22 45  1  0  0  0
 23 24  2  0  0  0
 23 46  1  0  0  0
 24 25  1  0  0  0
 24 47  1  0  0  0
 25 26  2  0  0  0
 25 27  1  0  0  0
 26 48  1  0  0  0
 27 28  2  0  0  0
 27 29  1  0  0  0
M  CHG  2  27   1  29  -1
M  END
> <s_m_entry_id>
52909

> <s_m_entry_name>
dock_pv.128

> <s_m_Source_Path>
/home/csk/Desktop/cluster/DUD-E-result/hdac8

> <s_m_Source_File>
dock_pv.maegz

> <i_m_Source_File_Index>
128

> <chembl_id>
CHEMBL3338404

> <chembl_pref_name>
None

> <i_lp_mmshare_version>
53161

> <i_f3d_flags>
0

> <r_lp_tautomer_probability>
1

> <s_lp_Force_Field>
OPLS_2005

> <r_lp_Energy>
39.062375

> <b_lp_Chiralities_Consistent>
1

> <s_lp_Variant>
CHEMBL3192_lig644-1

> <s_i_glide_gridfile>
glide-grid_3f07

> <i_i_glide_lignum>
670

> <i_i_glide_rotatable_bonds>
7

> <r_i_docking_score>
-7.87109433327134

> <r_i_glide_ligand_efficiency>
-0.271417045974874

> <r_i_glide_ligand_efficiency_sa>
-0.833879156190582

> <r_i_glide_ligand_efficiency_ln>
-1.80228100858826

> <r_i_glide_gscore>
-7.87109433327134

> <r_i_glide_lipo>
-1.033152099335

> <r_i_glide_hbond>
-0.304

> <r_i_glide_metal>
-2.3

> <r_i_glide_rewards>
-0.966415974080111

> <r_i_glide_evdw>
-20.2348518371582

> <r_i_glide_ecoul>
-17.3200569152832

> <r_i_glide_erotb>
0.631127569458455

> <r_i_glide_esite>
-0.288902700164295

> <r_i_glide_emodel>
-55.1033534483144

> <r_i_glide_energy>
-37.5549087524414

> <r_i_glide_einternal>
7.59282302856445

> <i_i_glide_confnum>
71

> <i_i_glide_posenum>
272

> <r_i_glide_eff_state_penalty>
0

> <s_user_duplicate_titles>
CHEMBL3192_lig644

> <s_m_subgroup_title>
dock_pv

> <s_m_subgroupid>
dock_pv

> <b_m_subgroup_collapsed>
1

$$$$
CHEMBL3192_lig467
                    3D
 Schrodinger Suite 2021-1.
 43 43  0  0  1  0            999 V2000
  -27.1654   31.7744  -47.4107 C   0  0  0  0  0  0
  -26.2139   32.0101  -48.4062 C   0  0  0  0  0  0
  -24.8636   31.7756  -48.1333 C   0  0  0  0  0  0
  -26.7784   31.2690  -46.1736 C   0  0  0  0  0  0
  -25.4314   30.9802  -45.9122 C   0  0  0  0  0  0
  -24.4751   31.2690  -46.8960 C   0  0  0  0  0  0
  -24.9893   30.3394  -44.6285 C   0  0  0  0  0  0
  -26.0504   29.9109  -43.6033 C   0  0  0  0  0  0
  -23.8130   30.0690  -44.3810 O   0  0  0  0  0  0
  -26.4455   31.0358  -42.6209 C   0  0  0  0  0  0
  -27.2838   30.5423  -41.4243 C   0  0  0  0  0  0
  -26.4627   29.7372  -40.3953 C   0  0  0  0  0  0
  -27.2532   29.2724  -39.1560 C   0  0  0  0  0  0
  -28.2986   28.1823  -39.4568 C   0  0  0  0  0  0
  -28.9259   27.5778  -38.1825 C   0  0  0  0  0  0
  -29.9542   26.4690  -38.4483 C   0  0  0  0  0  0
  -30.1457   25.5626  -37.4767 N   0  0  0  0  0  0
  -31.0130   24.4872  -37.7256 O   0  0  0  0  0  0
  -30.5910   26.4690  -39.5109 O   0  0  0  0  0  0
  -26.6323   32.5258  -49.7832 C   0  0  0  0  0  0
  -27.8834   32.9907  -49.7942 F   0  0  0  0  0  0
  -25.8221   33.5092  -50.1779 F   0  0  0  0  0  0
  -26.5463   31.5252  -50.6608 F   0  0  0  0  0  0
  -28.2130   31.9607  -47.5977 H   0  0  0  0  0  0
  -24.1128   31.9697  -48.8862 H   0  0  0  0  0  0
  -27.5513   31.0871  -45.4435 H   0  0  0  0  0  0
  -23.4246   31.0757  -46.7236 H   0  0  0  0  0  0
  -26.9236   29.5068  -44.1127 H   0  0  0  0  0  0
  -25.6313   29.0704  -43.0517 H   0  0  0  0  0  0
  -25.5563   31.5469  -42.2445 H   0  0  0  0  0  0
  -27.0130   31.7969  -43.1589 H   0  0  0  0  0  0
  -27.7203   31.4072  -40.9228 H   0  0  0  0  0  0
  -28.1247   29.9504  -41.7865 H   0  0  0  0  0  0
  -26.0170   28.8690  -40.8785 H   0  0  0  0  0  0
  -25.6239   30.3488  -40.0581 H   0  0  0  0  0  0
  -26.5411   28.8867  -38.4240 H   0  0  0  0  0  0
  -27.7326   30.1293  -38.6812 H   0  0  0  0  0  0
  -29.0743   28.5967  -40.1020 H   0  0  0  0  0  0
  -27.8089   27.3802  -40.0105 H   0  0  0  0  0  0
  -28.1169   27.1742  -37.5810 H   0  0  0  0  0  0
  -29.4120   28.3552  -37.5904 H   0  0  0  0  0  0
  -29.6728   25.4991  -36.5845 H   0  0  0  0  0  0
  -30.4215   23.7229  -37.8007 H   0  0  0  0  0  0
  1  2  2  0  0  0
  1  4  1  0  0  0
  1 24  1  0  0  0
  2  3  1  0  0  0
  2 20  1  0  0  0
  3  6  2  0  0  0
  3 25  1  0  0  0
  4  5  2  0  0  0
  4 26  1  0  0  0
  5  6  1  0  0  0
  5  7  1  0  0  0
  6 27  1  0  0  0
  7  8  1  0  0  0
  7  9  2  0  0  0
  8 10  1  0  0  0
  8 28  1  0  0  0
  8 29  1  0  0  0
 10 11  1  0  0  0
 10 30  1  0  0  0
 10 31  1  0  0  0
 11 12  1  0  0  0
 11 32  1  0  0  0
 11 33  1  0  0  0
 12 13  1  0  0  0
 12 34  1  0  0  0
 12 35  1  0  0  0
 13 14  1  0  0  0
 13 36  1  0  0  0
 13 37  1  0  0  0
 14 15  1  0  0  0
 14 38  1  0  0  0
 14 39  1  0  0  0
 15 16  1  0  0  0
 15 40  1  0  0  0
 15 41  1  0  0  0
 16 17  1  0  0  0
 16 19  2  0  0  0
 17 18  1  0  0  0
 17 42  1  0  0  0
 18 43  1  0  0  0
 20 21  1  0  0  0
 20 22  1  0  0  0
 20 23  1  0  0  0
M  END
> <s_m_entry_id>
52910

> <s_m_entry_name>
dock_pv.129

> <s_m_Source_Path>
/home/csk/Desktop/cluster/DUD-E-result/hdac8

> <s_m_Source_File>
dock_pv.maegz

> <i_m_Source_File_Index>
129

> <chembl_id>
CHEMBL2235258

> <chembl_pref_name>
None

> <i_lp_mmshare_version>
53161

> <i_f3d_flags>
0

> <r_lp_tautomer_probability>
0.99990000499975

> <s_lp_Force_Field>
OPLS_2005

> <r_lp_Energy>
21.406709

> <b_lp_Chiralities_Consistent>
1

> <s_lp_Variant>
CHEMBL3192_lig467-1

> <s_i_glide_gridfile>
glide-grid_3f07

> <i_i_glide_lignum>
488

> <i_i_glide_rotatable_bonds>
12

> <r_i_docking_score>
-7.86946926614505

> <r_i_glide_ligand_efficiency>
-0.342150837658481

> <r_i_glide_ligand_efficiency_sa>
-0.973031468328528

> <r_i_glide_ligand_efficiency_ln>
-1.90290902495603

> <r_i_glide_gscore>
-7.86946926614505

> <r_i_glide_lipo>
-1.3492170376051

> <r_i_glide_hbond>
-0.576

> <r_i_glide_metal>
-2.3

> <r_i_glide_rewards>
-1.22424577667905

> <r_i_glide_evdw>
-25.7180500030518

> <r_i_glide_ecoul>
-18.0805797576904

> <r_i_glide_erotb>
1.71433387121423

> <r_i_glide_esite>
-0.136350859268989

> <r_i_glide_emodel>
-66.6903413226428

> <r_i_glide_energy>
-43.7986297607422

> <r_i_glide_einternal>
6.13150644302368

> <i_i_glide_confnum>
197

> <i_i_glide_posenum>
159

> <r_i_glide_eff_state_penalty>
0

> <s_user_duplicate_titles>
CHEMBL3192_lig467

> <s_m_subgroup_title>
dock_pv

> <s_m_subgroupid>
dock_pv

> <b_m_subgroup_collapsed>
1

$$$$
CHEMBL3192_lig631
                    3D
 Schrodinger Suite 2021-1.
 58 60  0  0  1  0            999 V2000
  -25.8198   31.5401  -40.7525 C   0  0  2  0  0  0
  -26.5523   32.8910  -40.5219 C   0  0  0  0  0  0
  -26.5488   33.6581  -41.7648 N   0  0  0  0  0  0
  -27.6227   34.1866  -42.3673 C   0  0  0  0  0  0
  -27.9069   33.6580  -48.0398 N   0  0  0  0  0  0
  -27.4122   32.6695  -48.8054 C   0  0  0  0  0  0
  -26.6477   31.5934  -47.9953 C   0  0  0  0  0  0
  -25.8985   32.1198  -46.7177 C   0  0  0  0  0  0
  -26.8172   33.0945  -45.9509 C   0  0  0  0  0  0
  -26.7346   33.2979  -44.5695 C   0  0  0  0  0  0
  -27.6117   34.1494  -43.8801 C   0  0  0  0  0  0
  -28.5599   34.8655  -44.6215 C   0  0  0  0  0  0
  -28.6382   34.7108  -46.0056 C   0  0  0  0  0  0
  -27.7825   33.8237  -46.6619 C   0  0  0  0  0  0
  -27.6028   32.6128  -50.0165 O   0  0  0  0  0  0
  -24.6272   32.8874  -47.1481 C   0  0  0  0  0  0
  -25.5666   30.8852  -45.8369 C   0  0  0  0  0  0
  -28.6156   34.5577  -41.7451 O   0  0  0  0  0  0
  -26.6254   30.5902  -41.6893 C   0  0  0  0  0  0
  -27.8285   29.9317  -40.9828 C   0  0  0  0  0  0
  -27.3329   29.1086  -39.7802 C   0  0  1  0  0  0
  -26.6383   30.0583  -38.7880 C   0  0  0  0  0  0
  -25.4575   30.8100  -39.4339 C   0  0  0  0  0  0
  -28.5125   28.4312  -39.1072 C   0  0  0  0  0  0
  -28.6631   27.0947  -39.0566 C   0  0  0  0  0  0
  -29.8123   26.4787  -38.4616 C   0  0  0  0  0  0
  -29.8214   26.4685  -37.1221 N   0  0  0  0  0  0
  -30.7241   26.0690  -39.1810 O   0  0  0  0  0  0
  -30.9142   25.8777  -36.4699 O   0  0  0  0  0  0
  -24.8648   31.7383  -41.2445 H   0  0  0  0  0  0
  -27.5674   32.6983  -40.1727 H   0  0  0  0  0  0
  -26.1261   33.4707  -39.7064 H   0  0  0  0  0  0
  -25.6755   33.6711  -42.2678 H   0  0  0  0  0  0
  -28.4838   34.3059  -48.5530 H   0  0  0  0  0  0
  -27.4130   30.8672  -47.7149 H   0  0  0  0  0  0
  -25.9653   31.0772  -48.6709 H   0  0  0  0  0  0
  -25.9939   32.7400  -44.0207 H   0  0  0  0  0  0
  -29.2601   35.5254  -44.1290 H   0  0  0  0  0  0
  -29.3856   35.2612  -46.5594 H   0  0  0  0  0  0
  -23.9501   32.2491  -47.7169 H   0  0  0  0  0  0
  -24.8602   33.7504  -47.7728 H   0  0  0  0  0  0
  -24.0742   33.2545  -46.2831 H   0  0  0  0  0  0
  -25.0119   30.1272  -46.3824 H   0  0  0  0  0  0
  -24.9346   31.1431  -44.9880 H   0  0  0  0  0  0
  -26.4677   30.4119  -45.4464 H   0  0  0  0  0  0
  -25.9596   29.8089  -42.0601 H   0  0  0  0  0  0
  -26.9681   31.1151  -42.5801 H   0  0  0  0  0  0
  -28.3436   29.2801  -41.6883 H   0  0  0  0  0  0
  -28.5394   30.6993  -40.6739 H   0  0  0  0  0  0
  -26.6132   28.3718  -40.1377 H   0  0  0  0  0  0
  -27.3391   30.7861  -38.3805 H   0  0  0  0  0  0
  -26.2426   29.4655  -37.9714 H   0  0  0  0  0  0
  -24.6683   30.0856  -39.6453 H   0  0  0  0  0  0
  -25.0133   31.5089  -38.7225 H   0  0  0  0  0  0
  -29.2548   29.0915  -38.6750 H   0  0  0  0  0  0
  -27.9242   26.4306  -39.4787 H   0  0  0  0  0  0
  -29.1114   26.8264  -36.4880 H   0  0  0  0  0  0
  -30.5528   25.0653  -36.1040 H   0  0  0  0  0  0
  1  2  1  0  0  0
  1 19  1  0  0  0
  1 23  1  0  0  0
  1 30  1  0  0  0
  2  3  1  0  0  0
  2 31  1  0  0  0
  2 32  1  0  0  0
  3  4  1  0  0  0
  3 33  1  0  0  0
  4 11  1  0  0  0
  4 18  2  0  0  0
  5  6  1  0  0  0
  5 14  1  0  0  0
  5 34  1  0  0  0
  6  7  1  0  0  0
  6 15  2  0  0  0
  7  8  1  0  0  0
  7 35  1  0  0  0
  7 36  1  0  0  0
  8  9  1  0  0  0
  8 16  1  0  0  0
  8 17  1  0  0  0
  9 10  1  0  0  0
  9 14  2  0  0  0
 10 11  2  0  0  0
 10 37  1  0  0  0
 11 12  1  0  0  0
 12 13  2  0  0  0
 12 38  1  0  0  0
 13 14  1  0  0  0
 13 39  1  0  0  0
 16 40  1  0  0  0
 16 41  1  0  0  0
 16 42  1  0  0  0
 17 43  1  0  0  0
 17 44  1  0  0  0
 17 45  1  0  0  0
 19 20  1  0  0  0
 19 46  1  0  0  0
 19 47  1  0  0  0
 20 21  1  0  0  0
 20 48  1  0  0  0
 20 49  1  0  0  0
 21 22  1  0  0  0
 21 24  1  0  0  0
 21 50  1  0  0  0
 22 23  1  0  0  0
 22 51  1  0  0  0
 22 52  1  0  0  0
 23 53  1  0  0  0
 23 54  1  0  0  0
 24 25  2  0  0  0
 24 55  1  0  0  0
 25 26  1  0  0  0
 25 56  1  0  0  0
 26 27  1  0  0  0
 26 28  2  0  0  0
 27 29  1  0  0  0
 27 57  1  0  0  0
 29 58  1  0  0  0
M  END
> <s_m_entry_id>
52911

> <s_m_entry_name>
dock_pv.130

> <s_m_Source_Path>
/home/csk/Desktop/cluster/DUD-E-result/hdac8

> <s_m_Source_File>
dock_pv.maegz

> <i_m_Source_File_Index>
130

> <chembl_id>
CHEMBL3309299

> <chembl_pref_name>
None

> <i_lp_mmshare_version>
53161

> <i_f3d_flags>
0

> <r_lp_tautomer_probability>
1

> <s_lp_Force_Field>
OPLS_2005

> <r_lp_Energy>
33.640905

> <b_lp_Chiralities_Consistent>
1

> <s_lp_Variant>
CHEMBL3192_lig631-1

> <s_i_glide_gridfile>
glide-grid_3f07

> <i_i_glide_lignum>
657

> <i_i_glide_rotatable_bonds>
8

> <r_i_docking_score>
-7.86716167963592

> <r_i_glide_ligand_efficiency>
-0.271281437228825

> <r_i_glide_ligand_efficiency_sa>
-0.833462523158853

> <r_i_glide_ligand_efficiency_ln>
-1.80138053062924

> <r_i_glide_gscore>
-7.86716167963592

> <r_i_glide_lipo>
-1.32045894236346

> <r_i_glide_hbond>
-0.538598058616933

> <r_i_glide_metal>
-2.3

> <r_i_glide_rewards>
-0.639677218072619

> <r_i_glide_evdw>
-30.8634929656982

> <r_i_glide_ecoul>
-14.5611953735352

> <r_i_glide_erotb>
0.859497080501078

> <r_i_glide_esite>
-0.200570586768799

> <r_i_glide_emodel>
-59.8324955542402

> <r_i_glide_energy>
-45.4246883392334

> <r_i_glide_einternal>
24.2510452270508

> <i_i_glide_confnum>
68

> <i_i_glide_posenum>
183

> <r_i_glide_eff_state_penalty>
0

> <s_user_duplicate_titles>
CHEMBL3192_lig631

> <s_m_subgroup_title>
dock_pv

> <s_m_subgroupid>
dock_pv

> <b_m_subgroup_collapsed>
1

$$$$
CHEMBL3192_lig928
                    3D
 Schrodinger Suite 2021-1.
 48 49  0  0  1  0            999 V2000
  -27.4897   30.8690  -46.7774 C   0  0  0  0  0  0
  -27.3481   32.1311  -46.0592 N   0  0  0  0  0  0
  -27.8627   33.3303  -46.7225 C   0  0  0  0  0  0
  -26.4028   32.2272  -45.0037 C   0  0  0  0  0  0
  -25.9579   33.4747  -44.5438 C   0  0  0  0  0  0
  -25.0400   33.5677  -43.5040 C   0  0  0  0  0  0
  -24.5647   32.4152  -42.8720 C   0  0  0  0  0  0
  -23.5908   32.5583  -41.7201 C   0  0  0  0  0  0
  -23.7194   31.7878  -40.5871 N   0  0  0  0  0  0
  -22.6250   31.7572  -39.6068 C   0  0  0  0  0  0
  -24.7146   30.8690  -40.3488 N   0  0  0  0  0  0
  -25.9251   31.2320  -40.0947 C   0  0  0  0  0  0
  -26.4854   32.6513  -40.2239 C   0  0  0  0  0  0
  -26.9001   30.1963  -39.7171 C   0  0  0  0  0  0
  -26.5544   29.2673  -38.7347 C   0  0  0  0  0  0
  -27.4063   28.2217  -38.3937 C   0  0  0  0  0  0
  -28.6334   28.0743  -39.0325 C   0  0  0  0  0  0
  -29.5321   26.8966  -38.7216 C   0  0  0  0  0  0
  -29.5666   26.4690  -37.4545 N   0  0  0  0  0  0
  -30.3557   25.3436  -37.1515 O   0  0  0  0  0  0
  -30.3049   26.4690  -39.5810 O   0  0  0  0  0  0
  -29.0124   29.0374  -39.9810 C   0  0  0  0  0  0
  -28.1568   30.0859  -40.3221 C   0  0  0  0  0  0
  -22.7071   33.4135  -41.8334 O   0  0  0  0  0  0
  -24.9825   31.1644  -43.3380 C   0  0  0  0  0  0
  -25.8899   31.0743  -44.3877 C   0  0  0  0  0  0
  -27.8137   30.0692  -46.1119 H   0  0  0  0  0  0
  -28.2130   30.9496  -47.5810 H   0  0  0  0  0  0
  -26.5362   30.5767  -47.2196 H   0  0  0  0  0  0
  -28.2189   34.0615  -45.9964 H   0  0  0  0  0  0
  -27.0765   33.8036  -47.3118 H   0  0  0  0  0  0
  -28.6956   33.1012  -47.3891 H   0  0  0  0  0  0
  -26.3036   34.3945  -44.9877 H   0  0  0  0  0  0
  -24.7178   34.5469  -43.1767 H   0  0  0  0  0  0
  -22.1901   32.7446  -39.4422 H   0  0  0  0  0  0
  -22.9626   31.4053  -38.6301 H   0  0  0  0  0  0
  -21.8302   31.0923  -39.9465 H   0  0  0  0  0  0
  -27.3483   32.8074  -39.5811 H   0  0  0  0  0  0
  -25.7458   33.4147  -39.9810 H   0  0  0  0  0  0
  -26.8242   32.8335  -41.2430 H   0  0  0  0  0  0
  -25.5886   29.3245  -38.2515 H   0  0  0  0  0  0
  -27.0732   27.5047  -37.6570 H   0  0  0  0  0  0
  -29.0130   26.8036  -36.6709 H   0  0  0  0  0  0
  -29.7182   24.6240  -37.0757 H   0  0  0  0  0  0
  -29.9620   28.9694  -40.4901 H   0  0  0  0  0  0
  -28.4610   30.7856  -41.0877 H   0  0  0  0  0  0
  -24.6128   30.2532  -42.8920 H   0  0  0  0  0  0
  -26.1904   30.0878  -44.7017 H   0  0  0  0  0  0
  1  2  1  0  0  0
  1 27  1  0  0  0
  1 28  1  0  0  0
  1 29  1  0  0  0
  2  3  1  0  0  0
  2  4  1  0  0  0
  3 30  1  0  0  0
  3 31  1  0  0  0
  3 32  1  0  0  0
  4  5  2  0  0  0
  4 26  1  0  0  0
  5  6  1  0  0  0
  5 33  1  0  0  0
  6  7  2  0  0  0
  6 34  1  0  0  0
  7  8  1  0  0  0
  7 25  1  0  0  0
  8  9  1  0  0  0
  8 24  2  0  0  0
  9 10  1  0  0  0
  9 11  1  0  0  0
 10 35  1  0  0  0
 10 36  1  0  0  0
 10 37  1  0  0  0
 11 12  2  0  0  0
 12 13  1  0  0  0
 12 14  1  0  0  0
 13 38  1  0  0  0
 13 39  1  0  0  0
 13 40  1  0  0  0
 14 15  2  0  0  0
 14 23  1  0  0  0
 15 16  1  0  0  0
 15 41  1  0  0  0
 16 17  2  0  0  0
 16 42  1  0  0  0
 17 18  1  0  0  0
 17 22  1  0  0  0
 18 19  1  0  0  0
 18 21  2  0  0  0
 19 20  1  0  0  0
 19 43  1  0  0  0
 20 44  1  0  0  0
 22 23  2  0  0  0
 22 45  1  0  0  0
 23 46  1  0  0  0
 25 26  2  0  0  0
 25 47  1  0  0  0
 26 48  1  0  0  0
M  END
> <s_m_entry_id>
52912

> <s_m_entry_name>
dock_pv.131

> <s_m_Source_Path>
/home/csk/Desktop/cluster/DUD-E-result/hdac8

> <s_m_Source_File>
dock_pv.maegz

> <i_m_Source_File_Index>
131

> <chembl_id>
CHEMBL3763386

> <chembl_pref_name>
None

> <i_lp_mmshare_version>
53161

> <i_f3d_flags>
0

> <r_lp_tautomer_probability>
1

> <s_lp_Force_Field>
OPLS_2005

> <r_lp_Energy>
49.033968

> <b_lp_Chiralities_Consistent>
1

> <s_lp_Variant>
CHEMBL3192_lig928-1

> <s_i_glide_gridfile>
glide-grid_3f07

> <i_i_glide_lignum>
989

> <i_i_glide_rotatable_bonds>
8

> <r_i_docking_score>
-7.85986733939548

> <r_i_glide_ligand_efficiency>
-0.302302589976749

> <r_i_glide_ligand_efficiency_sa>
-0.895570233302867

> <r_i_glide_ligand_efficiency_ln>
-1.84586405432874

> <r_i_glide_gscore>
-7.85986733939548

> <r_i_glide_lipo>
-1.28332512260796

> <r_i_glide_hbond>
-0.608

> <r_i_glide_metal>
-2.3

> <r_i_glide_rewards>
-1.24406992351544

> <r_i_glide_evdw>
-25.5514583587646

> <r_i_glide_ecoul>
-12.0158090591431

> <r_i_glide_erotb>
0.912806657474177

> <r_i_glide_esite>
-0.257334673936563

> <r_i_glide_emodel>
-54.6964490546452

> <r_i_glide_energy>
-37.5672674179077

> <r_i_glide_einternal>
8.92515659332275

> <i_i_glide_confnum>
1

> <i_i_glide_posenum>
213

> <r_i_glide_eff_state_penalty>
0

> <s_user_duplicate_titles>
CHEMBL3192_lig928

> <s_m_subgroup_title>
dock_pv

> <s_m_subgroupid>
dock_pv

> <b_m_subgroup_collapsed>
1

$$$$
CHEMBL3192_lig1028
                    3D
 Schrodinger Suite 2021-1.
 41 43  0  0  1  0            999 V2000
  -30.6089   24.8690  -38.2139 O   0  0  0  0  0  0
  -29.7143   25.9574  -38.1337 N   0  0  0  0  0  0
  -29.7347   26.8690  -39.1175 C   0  0  0  0  0  0
  -30.6130   26.8690  -39.9810 O   0  0  0  0  0  0
  -28.7152   27.9921  -39.1404 C   0  0  0  0  0  0
  -27.5520   27.9452  -38.3822 C   0  0  0  0  0  0
  -26.6130   28.9608  -38.4792 C   0  0  0  0  0  0
  -26.7771   30.0623  -39.3005 C   0  0  0  0  0  0
  -25.6703   31.1144  -39.3704 C   0  0  0  0  0  0
  -26.1521   32.4282  -40.0100 C   0  0  0  0  0  0
  -26.9233   32.1800  -41.3105 C   0  0  2  0  0  0
  -28.1634   31.2884  -41.0464 C   0  0  0  0  0  0
  -27.9376   30.1281  -40.0879 C   0  0  0  0  0  0
  -28.8928   29.1068  -39.9810 C   0  0  0  0  0  0
  -26.0291   31.5406  -42.2753 N   0  0  0  0  0  0
  -26.1476   31.6619  -43.6676 C   0  0  0  0  0  0
  -25.3393   30.8318  -44.4372 C   0  0  0  0  0  0
  -25.4177   30.8687  -45.8236 C   0  0  0  0  0  0
  -26.3260   31.7161  -46.4699 C   0  0  0  0  0  0
  -27.1110   32.5763  -45.6917 C   0  0  0  0  0  0
  -27.0130   32.5587  -44.3024 C   0  0  0  0  0  0
  -26.4599   31.6970  -47.9477 N   0  3  0  0  0  0
  -27.2169   32.5048  -48.4776 O   0  0  0  0  0  0
  -25.8130   30.8691  -48.5850 O   0  5  0  0  0  0
  -30.0370   24.0873  -38.1504 H   0  0  0  0  0  0
  -29.0888   25.9109  -37.3398 H   0  0  0  0  0  0
  -27.3346   27.1133  -37.7366 H   0  0  0  0  0  0
  -25.6662   28.8690  -37.9810 H   0  0  0  0  0  0
  -25.2754   31.3198  -38.3739 H   0  0  0  0  0  0
  -24.8358   30.7077  -39.9433 H   0  0  0  0  0  0
  -26.7791   32.9761  -39.3078 H   0  0  0  0  0  0
  -25.2963   33.0807  -40.1929 H   0  0  0  0  0  0
  -27.2537   33.1394  -41.7065 H   0  0  0  0  0  0
  -28.5294   30.8690  -41.9810 H   0  0  0  0  0  0
  -28.9631   31.9058  -40.6412 H   0  0  0  0  0  0
  -29.7805   29.1868  -40.5931 H   0  0  0  0  0  0
  -25.5543   30.7174  -41.9365 H   0  0  0  0  0  0
  -24.6475   30.1493  -43.9661 H   0  0  0  0  0  0
  -24.7769   30.2054  -46.3810 H   0  0  0  0  0  0
  -27.8108   33.2559  -46.1580 H   0  0  0  0  0  0
  -27.6380   33.2347  -43.7427 H   0  0  0  0  0  0
  1  2  1  0  0  0
  1 25  1  0  0  0
  2  3  1  0  0  0
  2 26  1  0  0  0
  3  4  2  0  0  0
  3  5  1  0  0  0
  5  6  2  0  0  0
  5 14  1  0  0  0
  6  7  1  0  0  0
  6 27  1  0  0  0
  7  8  2  0  0  0
  7 28  1  0  0  0
  8  9  1  0  0  0
  8 13  1  0  0  0
  9 10  1  0  0  0
  9 29  1  0  0  0
  9 30  1  0  0  0
 10 11  1  0  0  0
 10 31  1  0  0  0
 10 32  1  0  0  0
 11 12  1  0  0  0
 11 15  1  0  0  0
 11 33  1  0  0  0
 12 13  1  0  0  0
 12 34  1  0  0  0
 12 35  1  0  0  0
 13 14  2  0  0  0
 14 36  1  0  0  0
 15 16  1  0  0  0
 15 37  1  0  0  0
 16 17  2  0  0  0
 16 21  1  0  0  0
 17 18  1  0  0  0
 17 38  1  0  0  0
 18 19  2  0  0  0
 18 39  1  0  0  0
 19 20  1  0  0  0
 19 22  1  0  0  0
 20 21  2  0  0  0
 20 40  1  0  0  0
 21 41  1  0  0  0
 22 23  2  0  0  0
 22 24  1  0  0  0
M  CHG  2  22   1  24  -1
M  END
> <s_m_entry_id>
52913

> <s_m_entry_name>
dock_pv.132

> <s_m_Source_Path>
/home/csk/Desktop/cluster/DUD-E-result/hdac8

> <s_m_Source_File>
dock_pv.maegz

> <i_m_Source_File_Index>
132

> <chembl_id>
CHEMBL3694284

> <chembl_pref_name>
None

> <i_lp_mmshare_version>
53161

> <i_f3d_flags>
0

> <r_lp_tautomer_probability>
1

> <s_lp_Force_Field>
OPLS_2005

> <r_lp_Energy>
27.908212

> <b_lp_Chiralities_Consistent>
1

> <s_lp_Variant>
CHEMBL3192_lig1028-1

> <s_i_glide_gridfile>
glide-grid_3f07

> <i_i_glide_lignum>
1095

> <i_i_glide_rotatable_bonds>
6

> <r_i_docking_score>
-7.85629126383172

> <r_i_glide_ligand_efficiency>
-0.327345469326322

> <r_i_glide_ligand_efficiency_sa>
-0.94422772395566

> <r_i_glide_ligand_efficiency_ln>
-1.88037100115042

> <r_i_glide_gscore>
-7.85629126383172

> <r_i_glide_lipo>
-1.37555739291847

> <r_i_glide_hbond>
-0.304

> <r_i_glide_metal>
-2.3

> <r_i_glide_rewards>
-1.48227495619306

> <r_i_glide_evdw>
-16.3395690917969

> <r_i_glide_ecoul>
-13.8227710723877

> <r_i_glide_erotb>
0.700593576587763

> <r_i_glide_esite>
-0.204658375859962

> <r_i_glide_emodel>
-45.9735685347298

> <r_i_glide_energy>
-30.1623401641846

> <r_i_glide_einternal>
0.988025665283203

> <i_i_glide_confnum>
42

> <i_i_glide_posenum>
384

> <r_i_glide_eff_state_penalty>
0

> <s_user_duplicate_titles>
CHEMBL3192_lig1028

> <s_m_subgroup_title>
dock_pv

> <s_m_subgroupid>
dock_pv

> <b_m_subgroup_collapsed>
1

$$$$
CHEMBL3192_lig557
                    3D
 Schrodinger Suite 2021-1.
 36 38  0  0  1  0            999 V2000
  -28.1784   30.3248  -40.6302 C   0  0  0  0  0  0
  -28.9838   29.2690  -40.2065 C   0  0  0  0  0  0
  -28.5480   28.3809  -39.2075 C   0  0  0  0  0  0
  -27.2995   28.6099  -38.6145 C   0  0  0  0  0  0
  -29.4130   27.2096  -38.7990 C   0  0  0  0  0  0
  -29.4130   26.8690  -37.5142 N   0  0  0  0  0  0
  -30.2130   26.6946  -39.5810 O   0  0  0  0  0  0
  -30.3048   25.8814  -37.0567 O   0  0  0  0  0  0
  -26.9293   30.5177  -40.0471 C   0  0  0  0  0  0
  -26.4983   29.6756  -39.0335 C   0  0  0  0  0  0
  -25.1401   30.1228  -38.5491 C   0  0  0  0  0  0
  -24.7298   31.1038  -39.5566 N   0  0  0  0  0  0
  -25.8812   31.5635  -40.3354 C   0  0  0  0  0  0
  -23.4157   31.4095  -39.7467 C   0  0  0  0  0  0
  -23.0475   32.3867  -40.7675 C   0  0  0  0  0  0
  -22.5293   30.8690  -39.0830 O   0  0  0  0  0  0
  -23.7489   33.5196  -41.2017 C   0  0  0  0  0  0
  -22.9856   34.2029  -42.1440 C   0  0  0  0  0  0
  -21.7864   33.5316  -42.2368 C   0  0  0  0  0  0
  -21.7944   32.4605  -41.3727 N   0  0  0  0  0  0
  -20.6651   31.5486  -41.2154 C   0  0  0  0  0  0
  -28.5262   30.9730  -41.4194 H   0  0  0  0  0  0
  -29.9447   29.1396  -40.6829 H   0  0  0  0  0  0
  -26.9485   27.9446  -37.8413 H   0  0  0  0  0  0
  -28.8344   27.2690  -36.7810 H   0  0  0  0  0  0
  -30.9126   26.3642  -36.4883 H   0  0  0  0  0  0
  -24.4276   29.3001  -38.4673 H   0  0  0  0  0  0
  -25.1913   30.6185  -37.5810 H   0  0  0  0  0  0
  -26.2014   32.5463  -39.9877 H   0  0  0  0  0  0
  -25.6454   31.6310  -41.3982 H   0  0  0  0  0  0
  -24.7188   33.8460  -40.8597 H   0  0  0  0  0  0
  -23.2645   35.1053  -42.6689 H   0  0  0  0  0  0
  -20.9081   33.7431  -42.8291 H   0  0  0  0  0  0
  -20.1558   31.7809  -40.2797 H   0  0  0  0  0  0
  -19.9591   31.6718  -42.0372 H   0  0  0  0  0  0
  -21.0127   30.5165  -41.1925 H   0  0  0  0  0  0
  1  9  1  0  0  0
  1  2  2  0  0  0
  1 22  1  0  0  0
  2  3  1  0  0  0
  2 23  1  0  0  0
  3  4  2  0  0  0
  3  5  1  0  0  0
  4 10  1  0  0  0
  4 24  1  0  0  0
  5  6  1  0  0  0
  5  7  2  0  0  0
  6  8  1  0  0  0
  6 25  1  0  0  0
  8 26  1  0  0  0
  9 10  2  0  0  0
  9 13  1  0  0  0
 10 11  1  0  0  0
 11 12  1  0  0  0
 11 27  1  0  0  0
 11 28  1  0  0  0
 12 13  1  0  0  0
 12 14  1  0  0  0
 13 29  1  0  0  0
 13 30  1  0  0  0
 14 15  1  0  0  0
 14 16  2  0  0  0
 15 17  2  0  0  0
 15 20  1  0  0  0
 17 18  1  0  0  0
 17 31  1  0  0  0
 18 19  2  0  0  0
 18 32  1  0  0  0
 19 20  1  0  0  0
 19 33  1  0  0  0
 20 21  1  0  0  0
 21 34  1  0  0  0
 21 35  1  0  0  0
 21 36  1  0  0  0
M  END
> <s_m_entry_id>
52914

> <s_m_entry_name>
dock_pv.133

> <s_m_Source_Path>
/home/csk/Desktop/cluster/DUD-E-result/hdac8

> <s_m_Source_File>
dock_pv.maegz

> <i_m_Source_File_Index>
133

> <chembl_id>
CHEMBL2431906

> <chembl_pref_name>
None

> <i_lp_mmshare_version>
53161

> <i_f3d_flags>
0

> <r_lp_tautomer_probability>
1

> <s_lp_Force_Field>
OPLS_2005

> <r_lp_Energy>
37.677169

> <b_lp_Chiralities_Consistent>
1

> <s_lp_Variant>
CHEMBL3192_lig557-1

> <s_i_glide_gridfile>
glide-grid_3f07

> <i_i_glide_lignum>
578

> <i_i_glide_rotatable_bonds>
5

> <r_i_docking_score>
-7.85552228361129

> <r_i_glide_ligand_efficiency>
-0.374072489695776

> <r_i_glide_ligand_efficiency_sa>
-1.0320376344934

> <r_i_glide_ligand_efficiency_ln>
-1.94226201104549

> <r_i_glide_gscore>
-7.85552228361129

> <r_i_glide_lipo>
-1.09476818848446

> <r_i_glide_hbond>
-0.608

> <r_i_glide_metal>
-2.3

> <r_i_glide_rewards>
-1.79549379165982

> <r_i_glide_evdw>
-20.0984973907471

> <r_i_glide_ecoul>
-11.3286371231079

> <r_i_glide_erotb>
0.891519524503727

> <r_i_glide_esite>
-0.244559389967204

> <r_i_glide_emodel>
-47.1779740607392

> <r_i_glide_energy>
-31.427134513855

> <r_i_glide_einternal>
1.90777671337128

> <i_i_glide_confnum>
27

> <i_i_glide_posenum>
206

> <r_i_glide_eff_state_penalty>
0

> <s_user_duplicate_titles>
CHEMBL3192_lig557

> <s_m_subgroup_title>
dock_pv

> <s_m_subgroupid>
dock_pv

> <b_m_subgroup_collapsed>
1

$$$$
CHEMBL3192_lig808
                    3D
 Schrodinger Suite 2021-1.
 56 59  0  0  1  0            999 V2000
  -31.1975   24.4690  -37.0159 O   0  0  0  0  0  0
  -30.2130   25.4644  -37.1382 N   0  0  0  0  0  0
  -30.1757   26.1891  -38.2680 C   0  0  0  0  0  0
  -31.0019   26.0690  -39.1810 O   0  0  0  0  0  0
  -29.0943   27.1528  -38.3417 C   0  0  0  0  0  0
  -29.0336   28.0991  -39.3078 C   0  0  0  0  0  0
  -28.0169   29.1509  -39.5087 C   0  0  0  0  0  0
  -26.8038   29.1771  -38.8098 C   0  0  0  0  0  0
  -25.8131   30.1353  -39.0548 C   0  0  0  0  0  0
  -26.1007   31.1064  -40.0210 C   0  0  0  0  0  0
  -27.3410   31.1375  -40.6948 C   0  0  0  0  0  0
  -28.3013   30.1511  -40.4452 C   0  0  0  0  0  0
  -27.4129   32.1974  -41.5505 N   0  0  0  0  0  0
  -26.2470   32.7872  -41.4668 C   0  0  0  0  0  0
  -25.8570   34.0235  -42.2743 C   0  0  0  0  0  0
  -26.9450   34.5879  -43.2309 C   0  0  0  0  0  0
  -27.2507   33.8091  -44.5160 C   0  0  0  0  0  0
  -26.6851   32.5583  -44.7864 C   0  0  0  0  0  0
  -26.9623   31.8991  -45.9808 C   0  0  0  0  0  0
  -27.8130   32.4892  -46.9097 C   0  0  0  0  0  0
  -28.4049   33.7219  -46.6442 C   0  0  0  0  0  0
  -28.1211   34.3808  -45.4498 C   0  0  0  0  0  0
  -25.3969   32.1693  -40.5631 N   0  0  0  0  0  0
  -24.0141   32.5354  -40.2594 C   0  0  0  0  0  0
  -22.9977   31.5940  -40.9358 C   0  0  0  0  0  0
  -22.9588   31.6690  -42.4583 C   0  0  0  0  0  0
  -23.8129   30.8690  -43.2216 C   0  0  0  0  0  0
  -23.7142   30.8691  -44.6104 C   0  0  0  0  0  0
  -22.7857   31.6982  -45.2342 C   0  0  0  0  0  0
  -21.9489   32.5192  -44.4811 C   0  0  0  0  0  0
  -22.0331   32.5023  -43.0911 C   0  0  0  0  0  0
  -30.7159   23.6491  -37.1811 H   0  0  0  0  0  0
  -29.5716   25.4945  -36.3571 H   0  0  0  0  0  0
  -28.3346   27.0981  -37.5810 H   0  0  0  0  0  0
  -29.8130   28.1176  -40.0529 H   0  0  0  0  0  0
  -26.5997   28.4120  -38.0763 H   0  0  0  0  0  0
  -24.8693   30.1156  -38.5290 H   0  0  0  0  0  0
  -29.2364   30.1634  -40.9856 H   0  0  0  0  0  0
  -25.5955   34.8177  -41.5737 H   0  0  0  0  0  0
  -24.9435   33.8413  -42.8417 H   0  0  0  0  0  0
  -27.8749   34.7412  -42.6815 H   0  0  0  0  0  0
  -26.6221   35.5828  -43.5422 H   0  0  0  0  0  0
  -26.0328   32.0867  -44.0730 H   0  0  0  0  0  0
  -26.5231   30.9342  -46.1845 H   0  0  0  0  0  0
  -28.0349   31.9789  -47.8361 H   0  0  0  0  0  0
  -29.0807   34.1640  -47.3625 H   0  0  0  0  0  0
  -28.5743   35.3419  -45.2551 H   0  0  0  0  0  0
  -23.8288   33.5798  -40.5117 H   0  0  0  0  0  0
  -23.8914   32.4690  -39.1810 H   0  0  0  0  0  0
  -22.0011   31.8176  -40.5512 H   0  0  0  0  0  0
  -23.1773   30.5632  -40.6253 H   0  0  0  0  0  0
  -24.5432   30.2365  -42.7375 H   0  0  0  0  0  0
  -24.3624   30.2387  -45.2010 H   0  0  0  0  0  0
  -22.7105   31.7043  -46.3116 H   0  0  0  0  0  0
  -21.2281   33.1556  -44.9730 H   0  0  0  0  0  0
  -21.3693   33.1248  -42.5086 H   0  0  0  0  0  0
  1  2  1  0  0  0
  1 32  1  0  0  0
  2  3  1  0  0  0
  2 33  1  0  0  0
  3  4  2  0  0  0
  3  5  1  0  0  0
  5  6  2  0  0  0
  5 34  1  0  0  0
  6  7  1  0  0  0
  6 35  1  0  0  0
  7  8  2  0  0  0
  7 12  1  0  0  0
  8  9  1  0  0  0
  8 36  1  0  0  0
  9 10  2  0  0  0
  9 37  1  0  0  0
 10 11  1  0  0  0
 10 23  1  0  0  0
 11 12  2  0  0  0
 11 13  1  0  0  0
 12 38  1  0  0  0
 13 14  2  0  0  0
 14 15  1  0  0  0
 14 23  1  0  0  0
 15 16  1  0  0  0
 15 39  1  0  0  0
 15 40  1  0  0  0
 16 17  1  0  0  0
 16 41  1  0  0  0
 16 42  1  0  0  0
 17 18  2  0  0  0
 17 22  1  0  0  0
 18 19  1  0  0  0
 18 43  1  0  0  0
 19 20  2  0  0  0
 19 44  1  0  0  0
 20 21  1  0  0  0
 20 45  1  0  0  0
 21 22  2  0  0  0
 21 46  1  0  0  0
 22 47  1  0  0  0
 23 24  1  0  0  0
 24 25  1  0  0  0
 24 48  1  0  0  0
 24 49  1  0  0  0
 25 26  1  0  0  0
 25 50  1  0  0  0
 25 51  1  0  0  0
 26 27  2  0  0  0
 26 31  1  0  0  0
 27 28  1  0  0  0
 27 52  1  0  0  0
 28 29  2  0  0  0
 28 53  1  0  0  0
 29 30  1  0  0  0
 29 54  1  0  0  0
 30 31  2  0  0  0
 30 55  1  0  0  0
 31 56  1  0  0  0
M  END
> <s_m_entry_id>
52915

> <s_m_entry_name>
dock_pv.134

> <s_m_Source_Path>
/home/csk/Desktop/cluster/DUD-E-result/hdac8

> <s_m_Source_File>
dock_pv.maegz

> <i_m_Source_File_Index>
134

> <chembl_id>
CHEMBL489124

> <chembl_pref_name>
None

> <i_lp_mmshare_version>
53161

> <i_f3d_flags>
0

> <r_lp_tautomer_probability>
1

> <s_lp_Force_Field>
OPLS_2005

> <r_lp_Energy>
30.705266

> <b_lp_Chiralities_Consistent>
1

> <s_lp_Variant>
CHEMBL3192_lig808-1

> <s_i_glide_gridfile>
glide-grid_3f07

> <i_i_glide_lignum>
862

> <i_i_glide_rotatable_bonds>
10

> <r_i_docking_score>
-7.85514955322185

> <r_i_glide_ligand_efficiency>
-0.253391921071673

> <r_i_glide_ligand_efficiency_sa>
-0.796000477415687

> <r_i_glide_ligand_efficiency_ln>
-1.77157695567458

> <r_i_glide_gscore>
-7.85514955322185

> <r_i_glide_lipo>
-1.43311699630707

> <r_i_glide_hbond>
-0.238263308267475

> <r_i_glide_metal>
-2.3

> <r_i_glide_rewards>
-0.852421382505968

> <r_i_glide_evdw>
-39.0057334899902

> <r_i_glide_ecoul>
-13.0293006896973

> <r_i_glide_erotb>
1.04761448792797

> <r_i_glide_esite>
-0.174280576115202

> <r_i_glide_emodel>
-80.4553252392207

> <r_i_glide_energy>
-52.0350341796875

> <r_i_glide_einternal>
3.36185431480408

> <i_i_glide_confnum>
5

> <i_i_glide_posenum>
365

> <r_i_glide_eff_state_penalty>
0

> <s_user_duplicate_titles>
CHEMBL3192_lig808

> <s_m_subgroup_title>
dock_pv

> <s_m_subgroupid>
dock_pv

> <b_m_subgroup_collapsed>
1

$$$$
CHEMBL3192_lig1036
                    3D
 Schrodinger Suite 2021-1.
 50 53  0  0  1  0            999 V2000
  -30.2889   36.7029  -48.1562 C   0  0  0  0  0  0
  -29.4135   35.6410  -47.5175 C   0  0  0  0  0  0
  -29.0510   35.7390  -46.1755 C   0  0  0  0  0  0
  -28.2642   34.7475  -45.5963 C   0  0  0  0  0  0
  -27.8249   33.6424  -46.3429 C   0  0  0  0  0  0
  -28.2130   33.5555  -47.6881 C   0  0  0  0  0  0
  -28.9959   34.5470  -48.2728 C   0  0  0  0  0  0
  -26.9567   32.5885  -45.7262 C   0  0  0  0  0  0
  -26.0848   31.7910  -46.4824 C   0  0  0  0  0  0
  -25.2948   30.8690  -45.7955 C   0  0  0  0  0  0
  -25.3555   30.7137  -44.4503 N   0  0  0  0  0  0
  -26.2130   31.5264  -43.7855 C   0  0  0  0  0  0
  -26.2153   31.3704  -42.3939 N   0  0  0  0  0  0
  -27.1188   32.0888  -41.4904 C   0  0  2  0  0  0
  -26.3564   32.5125  -40.2293 C   0  0  0  0  0  0
  -25.8057   31.2936  -39.4683 C   0  0  0  0  0  0
  -26.8237   30.1548  -39.3526 C   0  0  0  0  0  0
  -26.5473   29.0950  -38.5124 C   0  0  0  0  0  0
  -27.4130   28.0234  -38.3758 C   0  0  0  0  0  0
  -28.6345   27.9820  -39.0223 C   0  0  0  0  0  0
  -28.9052   29.0235  -39.9246 C   0  0  0  0  0  0
  -28.0099   30.0975  -40.1084 C   0  0  0  0  0  0
  -28.3210   31.1923  -41.1119 C   0  0  0  0  0  0
  -29.6225   26.8690  -38.7184 C   0  0  0  0  0  0
  -30.4040   26.4690  -39.5810 O   0  0  0  0  0  0
  -29.7142   26.4690  -37.4396 N   0  0  0  0  0  0
  -30.5882   25.4108  -37.1270 O   0  0  0  0  0  0
  -27.0126   32.4609  -44.3692 N   0  0  0  0  0  0
  -30.6853   37.4062  -47.4229 H   0  0  0  0  0  0
  -29.7272   37.2546  -48.9105 H   0  0  0  0  0  0
  -31.1378   36.2332  -48.6551 H   0  0  0  0  0  0
  -29.3735   36.5807  -45.5802 H   0  0  0  0  0  0
  -27.9849   34.8534  -44.5583 H   0  0  0  0  0  0
  -27.9238   32.7105  -48.2950 H   0  0  0  0  0  0
  -29.2916   34.4542  -49.3076 H   0  0  0  0  0  0
  -25.9967   31.8929  -47.5532 H   0  0  0  0  0  0
  -24.5891   30.2426  -46.3193 H   0  0  0  0  0  0
  -25.6834   30.6039  -42.0105 H   0  0  0  0  0  0
  -27.4960   32.9799  -41.9936 H   0  0  0  0  0  0
  -27.0198   33.0844  -39.5810 H   0  0  0  0  0  0
  -25.5399   33.1922  -40.4802 H   0  0  0  0  0  0
  -25.4679   31.6044  -38.4778 H   0  0  0  0  0  0
  -24.9194   30.9155  -39.9799 H   0  0  0  0  0  0
  -25.6093   29.0872  -37.9811 H   0  0  0  0  0  0
  -27.1283   27.2538  -37.6784 H   0  0  0  0  0  0
  -29.8306   29.0237  -40.4811 H   0  0  0  0  0  0
  -28.6795   30.6698  -41.9810 H   0  0  0  0  0  0
  -29.1363   31.8018  -40.7289 H   0  0  0  0  0  0
  -29.1539   26.7832  -36.6529 H   0  0  0  0  0  0
  -30.0028   24.6577  -36.9890 H   0  0  0  0  0  0
  1  2  1  0  0  0
  1 29  1  0  0  0
  1 30  1  0  0  0
  1 31  1  0  0  0
  2  3  2  0  0  0
  2  7  1  0  0  0
  3  4  1  0  0  0
  3 32  1  0  0  0
  4  5  2  0  0  0
  4 33  1  0  0  0
  5  6  1  0  0  0
  5  8  1  0  0  0
  6  7  2  0  0  0
  6 34  1  0  0  0
  7 35  1  0  0  0
  8  9  2  0  0  0
  8 28  1  0  0  0
  9 10  1  0  0  0
  9 36  1  0  0  0
 10 11  2  0  0  0
 10 37  1  0  0  0
 11 12  1  0  0  0
 12 13  1  0  0  0
 12 28  2  0  0  0
 13 14  1  0  0  0
 13 38  1  0  0  0
 14 15  1  0  0  0
 14 23  1  0  0  0
 14 39  1  0  0  0
 15 16  1  0  0  0
 15 40  1  0  0  0
 15 41  1  0  0  0
 16 17  1  0  0  0
 16 42  1  0  0  0
 16 43  1  0  0  0
 17 18  2  0  0  0
 17 22  1  0  0  0
 18 19  1  0  0  0
 18 44  1  0  0  0
 19 20  2  0  0  0
 19 45  1  0  0  0
 20 21  1  0  0  0
 20 24  1  0  0  0
 21 22  2  0  0  0
 21 46  1  0  0  0
 22 23  1  0  0  0
 23 47  1  0  0  0
 23 48  1  0  0  0
 24 25  2  0  0  0
 24 26  1  0  0  0
 26 27  1  0  0  0
 26 49  1  0  0  0
 27 50  1  0  0  0
M  END
> <s_m_entry_id>
52916

> <s_m_entry_name>
dock_pv.135

> <s_m_Source_Path>
/home/csk/Desktop/cluster/DUD-E-result/hdac8

> <s_m_Source_File>
dock_pv.maegz

> <i_m_Source_File_Index>
135

> <chembl_id>
CHEMBL3694288

> <chembl_pref_name>
None

> <i_lp_mmshare_version>
53161

> <i_f3d_flags>
0

> <r_lp_tautomer_probability>
0.999999987636

> <s_lp_Force_Field>
OPLS_2005

> <r_lp_Energy>
23.777876

> <b_lp_Chiralities_Consistent>
1

> <s_lp_Variant>
CHEMBL3192_lig1036-1

> <s_i_glide_gridfile>
glide-grid_3f07

> <i_i_glide_lignum>
1111

> <i_i_glide_rotatable_bonds>
6

> <r_i_docking_score>
-7.84426156169564

> <r_i_glide_ligand_efficiency>
-0.280152198631987

> <r_i_glide_ligand_efficiency_sa>
-0.850707075867702

> <r_i_glide_ligand_efficiency_ln>
-1.81068588596673

> <r_i_glide_gscore>
-7.84426156169564

> <r_i_glide_lipo>
-1.28716336720573

> <r_i_glide_hbond>
-0.608

> <r_i_glide_metal>
-2.3

> <r_i_glide_rewards>
-1.17636243280979

> <r_i_glide_evdw>
-22.822193145752

> <r_i_glide_ecoul>
-12.2199544906616

> <r_i_glide_erotb>
0.68957501882608

> <r_i_glide_esite>
-0.188207949619354

> <r_i_glide_emodel>
-52.6322057460278

> <r_i_glide_energy>
-35.0421476364136

> <r_i_glide_einternal>
1.71747183799744

> <i_i_glide_confnum>
54

> <i_i_glide_posenum>
69

> <r_i_glide_eff_state_penalty>
0

> <s_user_duplicate_titles>
CHEMBL3192_lig1036

> <s_m_subgroup_title>
dock_pv

> <s_m_subgroupid>
dock_pv

> <b_m_subgroup_collapsed>
1

$$$$
CHEMBL3192_lig137
                    3D
 Schrodinger Suite 2021-1.
 42 44  0  0  1  0            999 V2000
  -27.8078   33.5708  -41.1816 O   0  0  0  0  0  0
  -26.6162   33.2662  -43.2881 C   0  0  0  0  0  0
  -26.9115   32.9830  -41.7965 C   0  0  0  0  0  0
  -26.1029   32.0217  -41.2624 N   0  0  0  0  0  0
  -25.1148   31.2537  -42.0701 C   0  0  1  0  0  0
  -25.4321   31.1082  -43.5845 C   0  0  0  0  0  0
  -26.2077   32.0902  -44.0771 N   0  0  0  0  0  0
  -26.2188   31.6791  -39.8391 C   0  0  0  0  0  0
  -27.0623   30.4379  -39.5704 C   0  0  0  0  0  0
  -28.2662   30.2229  -40.2432 C   0  0  0  0  0  0
  -29.0134   29.0826  -39.9811 C   0  0  0  0  0  0
  -28.5843   28.1398  -39.0410 C   0  0  0  0  0  0
  -27.3748   28.3610  -38.3812 C   0  0  0  0  0  0
  -26.6136   29.4965  -38.6479 C   0  0  0  0  0  0
  -25.0646   30.1601  -44.2747 O   0  0  0  0  0  0
  -29.4289   26.9235  -38.7414 C   0  0  0  0  0  0
  -29.4133   26.4690  -37.4861 N   0  0  0  0  0  0
  -30.2130   26.4693  -39.5810 O   0  0  0  0  0  0
  -30.2130   25.3531  -37.1671 O   0  0  0  0  0  0
  -23.6138   31.5928  -41.8468 C   0  0  0  0  0  0
  -23.2976   33.0757  -41.8532 C   0  0  0  0  0  0
  -22.7029   35.4217  -42.4805 C   0  0  0  0  0  0
  -22.8553   33.9142  -43.3178 S   0  0  0  0  0  0
  -23.2938   33.9717  -40.7838 C   0  0  0  0  0  0
  -22.9687   35.2844  -41.1307 C   0  0  0  0  0  0
  -27.5411   33.6401  -43.7283 H   0  0  0  0  0  0
  -25.8875   34.0730  -43.3701 H   0  0  0  0  0  0
  -25.2348   30.2209  -41.7384 H   0  0  0  0  0  0
  -26.3887   32.0678  -45.0701 H   0  0  0  0  0  0
  -26.6128   32.5127  -39.2548 H   0  0  0  0  0  0
  -25.2146   31.5208  -39.4431 H   0  0  0  0  0  0
  -28.6315   30.9321  -40.9700 H   0  0  0  0  0  0
  -29.9424   28.9508  -40.5152 H   0  0  0  0  0  0
  -27.0130   27.6488  -37.6551 H   0  0  0  0  0  0
  -25.6743   29.6416  -38.1344 H   0  0  0  0  0  0
  -28.8789   26.8268  -36.6984 H   0  0  0  0  0  0
  -29.5882   24.6185  -37.1378 H   0  0  0  0  0  0
  -23.3231   31.1848  -40.8778 H   0  0  0  0  0  0
  -22.9789   31.0616  -42.5582 H   0  0  0  0  0  0
  -22.4233   36.3187  -43.0129 H   0  0  0  0  0  0
  -23.5294   33.6779  -39.7706 H   0  0  0  0  0  0
  -22.9275   36.0960  -40.4184 H   0  0  0  0  0  0
  1  3  2  0  0  0
  2  3  1  0  0  0
  2  7  1  0  0  0
  2 26  1  0  0  0
  2 27  1  0  0  0
  3  4  1  0  0  0
  4  5  1  0  0  0
  4  8  1  0  0  0
  5  6  1  0  0  0
  5 20  1  0  0  0
  5 28  1  0  0  0
  6  7  1  0  0  0
  6 15  2  0  0  0
  7 29  1  0  0  0
  8  9  1  0  0  0
  8 30  1  0  0  0
  8 31  1  0  0  0
  9 14  1  0  0  0
  9 10  2  0  0  0
 10 11  1  0  0  0
 10 32  1  0  0  0
 11 12  2  0  0  0
 11 33  1  0  0  0
 12 13  1  0  0  0
 12 16  1  0  0  0
 13 14  2  0  0  0
 13 34  1  0  0  0
 14 35  1  0  0  0
 16 17  1  0  0  0
 16 18  2  0  0  0
 17 19  1  0  0  0
 17 36  1  0  0  0
 19 37  1  0  0  0
 20 21  1  0  0  0
 20 38  1  0  0  0
 20 39  1  0  0  0
 21 23  1  0  0  0
 21 24  2  0  0  0
 22 23  1  0  0  0
 22 25  2  0  0  0
 22 40  1  0  0  0
 24 25  1  0  0  0
 24 41  1  0  0  0
 25 42  1  0  0  0
M  END
> <s_m_entry_id>
52917

> <s_m_entry_name>
dock_pv.136

> <s_m_Source_Path>
/home/csk/Desktop/cluster/DUD-E-result/hdac8

> <s_m_Source_File>
dock_pv.maegz

> <i_m_Source_File_Index>
136

> <chembl_id>
CHEMBL481726

> <chembl_pref_name>
None

> <i_lp_mmshare_version>
53161

> <i_f3d_flags>
0

> <r_lp_tautomer_probability>
1

> <s_lp_Force_Field>
OPLS_2005

> <r_lp_Energy>
26.062632

> <b_lp_Chiralities_Consistent>
1

> <s_lp_Variant>
CHEMBL3192_lig137-1

> <s_i_glide_gridfile>
glide-grid_3f07

> <i_i_glide_lignum>
146

> <i_i_glide_rotatable_bonds>
7

> <r_i_docking_score>
-7.84368758364716

> <r_i_glide_ligand_efficiency>
-0.313747503345887

> <r_i_glide_ligand_efficiency_sa>
-0.917403264119037

> <r_i_glide_ligand_efficiency_ln>
-1.85918901367338

> <r_i_glide_gscore>
-7.84368758364716

> <r_i_glide_lipo>
-0.873924366111172

> <r_i_glide_hbond>
-0.607045001199867

> <r_i_glide_metal>
-2.3

> <r_i_glide_rewards>
-1.23449128041373

> <r_i_glide_evdw>
-21.9367485046387

> <r_i_glide_ecoul>
-15.9083280563354

> <r_i_glide_erotb>
0.890321829750487

> <r_i_glide_esite>
-0.235462131990635

> <r_i_glide_emodel>
-56.3435348463932

> <r_i_glide_energy>
-37.8450765609741

> <r_i_glide_einternal>
6.08946800231934

> <i_i_glide_confnum>
65

> <i_i_glide_posenum>
342

> <r_i_glide_eff_state_penalty>
0

> <s_user_duplicate_titles>
CHEMBL3192_lig137,474789

> <s_m_subgroup_title>
dock_pv

> <s_m_subgroupid>
dock_pv

> <b_m_subgroup_collapsed>
1

$$$$
CHEMBL3192_lig236
                    3D
 Schrodinger Suite 2021-1.
 44 47  0  0  1  0            999 V2000
  -22.9386   32.0432  -41.6170 C   0  0  0  0  0  0
  -22.4198   33.3243  -41.8424 C   0  0  0  0  0  0
  -21.4120   33.8238  -41.0214 C   0  0  0  0  0  0
  -20.9151   33.0417  -39.9810 C   0  0  0  0  0  0
  -21.4254   31.7668  -39.7488 C   0  0  0  0  0  0
  -22.4339   31.2690  -40.5680 C   0  0  0  0  0  0
  -19.6573   33.6572  -38.9725 Cl  0  0  0  0  0  0
  -23.9174   31.5209  -42.5011 N   0  0  0  0  0  0
  -24.2745   31.3048  -46.6095 C   0  0  0  0  0  0
  -23.0711   31.8289  -46.1398 C   0  0  0  0  0  0
  -22.8081   31.9655  -44.7747 C   0  0  0  0  0  0
  -25.2662   30.8735  -45.7285 C   0  0  0  0  0  0
  -25.8131   30.6015  -43.3153 N   0  0  0  0  0  0
  -25.0202   30.9819  -44.3536 C   0  0  0  0  0  0
  -23.8097   31.5421  -43.8873 C   0  0  0  0  0  0
  -25.1493   30.9121  -42.2227 C   0  0  0  0  0  0
  -25.7342   30.5861  -40.8687 C   0  0  0  0  0  0
  -25.3877   31.2744  -39.7015 C   0  0  0  0  0  0
  -25.8793   30.8690  -38.4664 C   0  0  0  0  0  0
  -26.7856   29.8164  -38.3819 C   0  0  0  0  0  0
  -27.2510   29.1902  -39.5350 C   0  0  0  0  0  0
  -26.6915   29.5619  -40.7622 C   0  0  0  0  0  0
  -28.3406   28.1949  -39.4966 C   0  0  0  0  0  0
  -28.6690   27.3541  -38.4879 C   0  0  0  0  0  0
  -29.8130   26.4690  -38.5703 C   0  0  0  0  0  0
  -29.9836   25.6777  -37.4998 N   0  0  0  0  0  0
  -30.5814   26.4690  -39.5444 O   0  0  0  0  0  0
  -31.0130   24.7236  -37.5265 O   0  0  0  0  0  0
  -22.7961   33.9388  -42.6477 H   0  0  0  0  0  0
  -21.0161   34.8141  -41.1912 H   0  0  0  0  0  0
  -21.0440   31.1693  -38.9340 H   0  0  0  0  0  0
  -22.8226   30.2799  -40.3809 H   0  0  0  0  0  0
  -24.4382   31.2321  -47.6751 H   0  0  0  0  0  0
  -22.3214   32.1423  -46.8527 H   0  0  0  0  0  0
  -21.8671   32.3697  -44.4304 H   0  0  0  0  0  0
  -26.1974   30.4690  -46.0950 H   0  0  0  0  0  0
  -24.7276   32.1286  -39.7222 H   0  0  0  0  0  0
  -25.5747   31.4000  -37.5810 H   0  0  0  0  0  0
  -27.1675   29.5243  -37.4212 H   0  0  0  0  0  0
  -27.0130   29.0468  -41.6517 H   0  0  0  0  0  0
  -28.9554   28.2039  -40.3810 H   0  0  0  0  0  0
  -28.0826   27.3172  -37.5813 H   0  0  0  0  0  0
  -29.4085   25.6206  -36.6703 H   0  0  0  0  0  0
  -30.5415   23.8806  -37.5810 H   0  0  0  0  0  0
  1  2  2  0  0  0
  1  8  1  0  0  0
  1  6  1  0  0  0
  2  3  1  0  0  0
  2 29  1  0  0  0
  3  4  2  0  0  0
  3 30  1  0  0  0
  4  7  1  0  0  0
  4  5  1  0  0  0
  5  6  2  0  0  0
  5 31  1  0  0  0
  6 32  1  0  0  0
  8 15  1  0  0  0
  8 16  1  0  0  0
  9 10  2  0  0  0
  9 12  1  0  0  0
  9 33  1  0  0  0
 10 11  1  0  0  0
 10 34  1  0  0  0
 11 15  2  0  0  0
 11 35  1  0  0  0
 12 14  2  0  0  0
 12 36  1  0  0  0
 13 14  1  0  0  0
 13 16  2  0  0  0
 14 15  1  0  0  0
 16 17  1  0  0  0
 17 18  2  0  0  0
 17 22  1  0  0  0
 18 19  1  0  0  0
 18 37  1  0  0  0
 19 20  2  0  0  0
 19 38  1  0  0  0
 20 21  1  0  0  0
 20 39  1  0  0  0
 21 22  2  0  0  0
 21 23  1  0  0  0
 22 40  1  0  0  0
 23 24  2  0  0  0
 23 41  1  0  0  0
 24 25  1  0  0  0
 24 42  1  0  0  0
 25 26  1  0  0  0
 25 27  2  0  0  0
 26 28  1  0  0  0
 26 43  1  0  0  0
 28 44  1  0  0  0
M  END
> <s_m_entry_id>
52918

> <s_m_entry_name>
dock_pv.137

> <s_m_Source_Path>
/home/csk/Desktop/cluster/DUD-E-result/hdac8

> <s_m_Source_File>
dock_pv.maegz

> <i_m_Source_File_Index>
137

> <chembl_id>
CHEMBL1099094

> <chembl_pref_name>
None

> <i_lp_mmshare_version>
53161

> <i_f3d_flags>
0

> <r_lp_tautomer_probability>
1

> <s_lp_Force_Field>
OPLS_2005

> <r_lp_Energy>
32.100699

> <b_lp_Chiralities_Consistent>
1

> <s_lp_Variant>
CHEMBL3192_lig236-1

> <s_i_glide_gridfile>
glide-grid_3f07

> <i_i_glide_lignum>
246

> <i_i_glide_rotatable_bonds>
6

> <r_i_docking_score>
-7.84014243836645

> <r_i_glide_ligand_efficiency>
-0.280005087084516

> <r_i_glide_ligand_efficiency_sa>
-0.850260358565512

> <r_i_glide_ligand_efficiency_ln>
-1.80973507135963

> <r_i_glide_gscore>
-7.84014243836645

> <r_i_glide_lipo>
-1.1811910592774

> <r_i_glide_hbond>
-0.30575057325655

> <r_i_glide_metal>
-2.3

> <r_i_glide_rewards>
-0.907670599579629

> <r_i_glide_evdw>
-29.0687980651855

> <r_i_glide_ecoul>
-14.668438911438

> <r_i_glide_erotb>
0.64151581569811

> <r_i_glide_esite>
-0.133340281976008

> <r_i_glide_emodel>
-67.6936410986931

> <r_i_glide_energy>
-43.7372369766235

> <r_i_glide_einternal>
3.41650605201721

> <i_i_glide_confnum>
34

> <i_i_glide_posenum>
162

> <r_i_glide_eff_state_penalty>
0

> <s_user_duplicate_titles>
CHEMBL3192_lig236,625390

> <s_m_subgroup_title>
dock_pv

> <s_m_subgroupid>
dock_pv

> <b_m_subgroup_collapsed>
1

$$$$
CHEMBL3192_lig1027
                    3D
 Schrodinger Suite 2021-1.
 39 41  0  0  1  0            999 V2000
  -30.2130   25.3259  -37.3275 O   0  0  0  0  0  0
  -29.4130   26.4695  -37.5304 N   0  0  0  0  0  0
  -29.4130   27.0462  -38.7369 C   0  0  0  0  0  0
  -30.2374   26.7153  -39.5810 O   0  0  0  0  0  0
  -28.4557   28.1910  -38.9886 C   0  0  0  0  0  0
  -27.2135   28.2065  -38.3810 C   0  0  0  0  0  0
  -26.3173   29.2569  -38.5569 C   0  0  0  0  0  0
  -26.6125   30.3214  -39.3876 C   0  0  0  0  0  0
  -25.5427   31.3845  -39.6555 C   0  0  0  0  0  0
  -26.1038   32.6618  -40.3099 C   0  0  0  0  0  0
  -27.1195   32.3535  -41.4096 C   0  0  2  0  0  0
  -28.2930   31.5466  -40.8089 C   0  0  0  0  0  0
  -27.8767   30.3389  -40.0051 C   0  0  0  0  0  0
  -28.7711   29.2691  -39.8224 C   0  0  0  0  0  0
  -26.4745   31.6082  -42.4932 N   0  0  0  0  0  0
  -26.6131   31.8791  -43.8659 C   0  0  0  0  0  0
  -26.0094   30.9803  -44.7474 C   0  0  0  0  0  0
  -26.1171   31.1643  -46.1230 C   0  0  0  0  0  0
  -26.8402   32.2421  -46.6235 C   0  0  0  0  0  0
  -27.0176   32.4660  -48.5049 Br  0  0  0  0  0  0
  -27.4340   33.1548  -45.7573 C   0  0  0  0  0  0
  -27.3131   32.9807  -44.3805 C   0  0  0  0  0  0
  -29.5805   24.5968  -37.3076 H   0  0  0  0  0  0
  -28.8515   26.7235  -36.7228 H   0  0  0  0  0  0
  -26.9609   27.3992  -37.7125 H   0  0  0  0  0  0
  -25.3539   29.2200  -38.0695 H   0  0  0  0  0  0
  -25.0194   31.6461  -38.7341 H   0  0  0  0  0  0
  -24.7890   30.9490  -40.3130 H   0  0  0  0  0  0
  -26.5907   33.2728  -39.5479 H   0  0  0  0  0  0
  -25.2866   33.2738  -40.6954 H   0  0  0  0  0  0
  -27.5087   33.2996  -41.7782 H   0  0  0  0  0  0
  -28.9710   31.2026  -41.5810 H   0  0  0  0  0  0
  -28.8620   32.1881  -40.1440 H   0  0  0  0  0  0
  -29.7368   29.3048  -40.3074 H   0  0  0  0  0  0
  -26.0221   30.7462  -42.2276 H   0  0  0  0  0  0
  -25.4559   30.1321  -44.3722 H   0  0  0  0  0  0
  -25.6490   30.4691  -46.8020 H   0  0  0  0  0  0
  -27.9884   33.9936  -46.1526 H   0  0  0  0  0  0
  -27.7877   33.7058  -43.7419 H   0  0  0  0  0  0
  1  2  1  0  0  0
  1 23  1  0  0  0
  2  3  1  0  0  0
  2 24  1  0  0  0
  3  4  2  0  0  0
  3  5  1  0  0  0
  5  6  2  0  0  0
  5 14  1  0  0  0
  6  7  1  0  0  0
  6 25  1  0  0  0
  7  8  2  0  0  0
  7 26  1  0  0  0
  8  9  1  0  0  0
  8 13  1  0  0  0
  9 10  1  0  0  0
  9 27  1  0  0  0
  9 28  1  0  0  0
 10 11  1  0  0  0
 10 29  1  0  0  0
 10 30  1  0  0  0
 11 12  1  0  0  0
 11 15  1  0  0  0
 11 31  1  0  0  0
 12 13  1  0  0  0
 12 32  1  0  0  0
 12 33  1  0  0  0
 13 14  2  0  0  0
 14 34  1  0  0  0
 15 16  1  0  0  0
 15 35  1  0  0  0
 16 17  2  0  0  0
 16 22  1  0  0  0
 17 18  1  0  0  0
 17 36  1  0  0  0
 18 19  2  0  0  0
 18 37  1  0  0  0
 19 20  1  0  0  0
 19 21  1  0  0  0
 21 22  2  0  0  0
 21 38  1  0  0  0
 22 39  1  0  0  0
M  END
> <s_m_entry_id>
52919

> <s_m_entry_name>
dock_pv.138

> <s_m_Source_Path>
/home/csk/Desktop/cluster/DUD-E-result/hdac8

> <s_m_Source_File>
dock_pv.maegz

> <i_m_Source_File_Index>
138

> <chembl_id>
CHEMBL3694283

> <chembl_pref_name>
None

> <i_lp_mmshare_version>
53161

> <i_f3d_flags>
0

> <r_lp_tautomer_probability>
1

> <s_lp_Force_Field>
OPLS_2005

> <r_lp_Energy>
24.660528

> <b_lp_Chiralities_Consistent>
1

> <s_lp_Variant>
CHEMBL3192_lig1027-1

> <s_i_glide_gridfile>
glide-grid_3f07

> <i_i_glide_lignum>
1093

> <i_i_glide_rotatable_bonds>
5

> <r_i_docking_score>
-7.83312275524926

> <r_i_glide_ligand_efficiency>
-0.356051034329512

> <r_i_glide_ligand_efficiency_sa>
-0.997669000883878

> <r_i_glide_ligand_efficiency_ln>
-1.91470092147763

> <r_i_glide_gscore>
-7.83312275524926

> <r_i_glide_lipo>
-1.45496231451017

> <r_i_glide_hbond>
-0.600925385669814

> <r_i_glide_metal>
-2.3

> <r_i_glide_rewards>
-1.21476560850261

> <r_i_glide_evdw>
-17.9816417694092

> <r_i_glide_ecoul>
-11.6952867507935

> <r_i_glide_erotb>
0.588190646400556

> <r_i_glide_esite>
-0.197284991877744

> <r_i_glide_emodel>
-47.6109332642757

> <r_i_glide_energy>
-29.6769285202026

> <r_i_glide_einternal>
1.35252022743225

> <i_i_glide_confnum>
38

> <i_i_glide_posenum>
243

> <r_i_glide_eff_state_penalty>
0

> <s_user_duplicate_titles>
CHEMBL3192_lig1027

> <s_m_subgroup_title>
dock_pv

> <s_m_subgroupid>
dock_pv

> <b_m_subgroup_collapsed>
1

$$$$
CHEMBL3192_lig484
                    3D
 Schrodinger Suite 2021-1.
 18 18  0  0  1  0            999 V2000
  -29.6155   26.8690  -38.6793 C   0  0  0  0  0  0
  -29.7581   26.4690  -37.4047 N   0  0  0  0  0  0
  -30.3552   26.4690  -39.5810 O   0  0  0  0  0  0
  -30.5418   25.3263  -37.1539 O   0  0  0  0  0  0
  -29.0036   29.1711  -39.8119 C   0  0  0  0  0  0
  -28.7051   27.9738  -38.9214 C   0  0  0  0  0  0
  -27.4757   28.0678  -38.3810 C   0  0  0  0  0  0
  -26.7945   29.3584  -38.7882 C   0  0  0  0  0  0
  -27.6342   29.8202  -39.9719 C   0  0  0  0  0  0
  -29.1804   26.7455  -36.6166 H   0  0  0  0  0  0
  -29.8962   24.6216  -37.0295 H   0  0  0  0  0  0
  -29.4314   28.9186  -40.7810 H   0  0  0  0  0  0
  -29.7047   29.8463  -39.3189 H   0  0  0  0  0  0
  -27.0130   27.3601  -37.7085 H   0  0  0  0  0  0
  -26.8328   30.0790  -37.9707 H   0  0  0  0  0  0
  -25.7463   29.2451  -39.0672 H   0  0  0  0  0  0
  -27.1736   29.4746  -40.8996 H   0  0  0  0  0  0
  -27.6945   30.9075  -40.0348 H   0  0  0  0  0  0
  1  2  1  0  0  0
  1  3  2  0  0  0
  1  6  1  0  0  0
  2  4  1  0  0  0
  2 10  1  0  0  0
  4 11  1  0  0  0
  5  6  1  0  0  0
  5  9  1  0  0  0
  5 12  1  0  0  0
  5 13  1  0  0  0
  6  7  2  0  0  0
  7  8  1  0  0  0
  7 14  1  0  0  0
  8  9  1  0  0  0
  8 15  1  0  0  0
  8 16  1  0  0  0
  9 17  1  0  0  0
  9 18  1  0  0  0
M  END
> <s_m_entry_id>
52920

> <s_m_entry_name>
dock_pv.139

> <s_m_Source_Path>
/home/csk/Desktop/cluster/DUD-E-result/hdac8

> <s_m_Source_File>
dock_pv.maegz

> <i_m_Source_File_Index>
139

> <chembl_id>
CHEMBL2333346

> <chembl_pref_name>
None

> <i_lp_mmshare_version>
53161

> <i_f3d_flags>
0

> <r_lp_tautomer_probability>
1

> <s_lp_Force_Field>
OPLS_2005

> <r_lp_Energy>
26.007338

> <b_lp_Chiralities_Consistent>
1

> <s_lp_Variant>
CHEMBL3192_lig484-1

> <s_i_glide_gridfile>
glide-grid_3f07

> <i_i_glide_lignum>
505

> <i_i_glide_rotatable_bonds>
3

> <r_i_docking_score>
-7.8285543047325

> <r_i_glide_ligand_efficiency>
-0.8698393671925

> <r_i_glide_ligand_efficiency_sa>
-1.80933879502565

> <r_i_glide_ligand_efficiency_ln>
-2.44854689289762

> <r_i_glide_gscore>
-7.8285543047325

> <r_i_glide_lipo>
-0.694549929237284

> <r_i_glide_hbond>
-0.608

> <r_i_glide_metal>
-2.3

> <r_i_glide_rewards>
-2.45440425889269

> <r_i_glide_evdw>
-9.77031993865967

> <r_i_glide_ecoul>
-12.9771995544434

> <r_i_glide_erotb>
0.848367602873245

> <r_i_glide_esite>
-0.184871789376276

> <r_i_glide_emodel>
-37.4793234849977

> <r_i_glide_energy>
-22.747519493103

> <r_i_glide_einternal>
1.22513973712921

> <i_i_glide_confnum>
1

> <i_i_glide_posenum>
377

> <r_i_glide_eff_state_penalty>
0

> <s_user_duplicate_titles>
CHEMBL3192_lig484

> <s_m_subgroup_title>
dock_pv

> <s_m_subgroupid>
dock_pv

> <b_m_subgroup_collapsed>
1

$$$$
CHEMBL3192_lig681
                    3D
 Schrodinger Suite 2021-1.
 43 45  0  0  1  0            999 V2000
  -29.1558   29.2690  -40.3185 C   0  0  0  0  0  0
  -28.6263   28.4563  -39.3079 C   0  0  0  0  0  0
  -27.3859   28.8041  -38.7556 C   0  0  0  0  0  0
  -28.4644   30.3737  -40.7810 C   0  0  0  0  0  0
  -27.2378   30.7217  -40.2352 C   0  0  0  0  0  0
  -26.7001   29.9366  -39.2068 C   0  0  0  0  0  0
  -29.4130   27.2424  -38.8483 C   0  0  0  0  0  0
  -29.3209   26.8690  -37.5810 N   0  0  0  0  0  0
  -30.2265   26.6879  -39.5810 O   0  0  0  0  0  0
  -30.1488   25.8219  -37.1163 O   0  0  0  0  0  0
  -26.6359   31.8735  -40.7704 N   0  0  0  0  0  0
  -25.4068   32.4910  -40.2664 C   0  0  2  0  0  0
  -25.2242   33.9177  -40.7636 C   0  0  0  0  0  0
  -24.3007   33.7993  -41.9568 C   0  0  0  0  0  0
  -23.6027   32.5400  -41.7189 N   0  0  0  0  0  0
  -24.1633   31.7454  -40.7753 C   0  0  0  0  0  0
  -23.8173   30.6164  -40.4360 O   0  0  0  0  0  0
  -22.5456   32.0687  -42.6182 C   0  0  0  0  0  0
  -23.0123   31.7451  -44.0360 C   0  0  0  0  0  0
  -22.2130   32.1306  -45.1148 C   0  0  0  0  0  0
  -22.6356   31.8912  -46.4193 C   0  0  0  0  0  0
  -23.8609   31.2690  -46.6430 C   0  0  0  0  0  0
  -24.6599   30.8690  -45.5740 C   0  0  0  0  0  0
  -24.2332   31.1006  -44.2693 C   0  0  0  0  0  0
  -30.1103   29.0452  -40.7721 H   0  0  0  0  0  0
  -26.9387   28.1994  -37.9810 H   0  0  0  0  0  0
  -28.8943   30.9492  -41.5810 H   0  0  0  0  0  0
  -25.7482   30.1833  -38.7616 H   0  0  0  0  0  0
  -28.7333   27.2690  -36.8511 H   0  0  0  0  0  0
  -29.5479   25.0746  -37.0235 H   0  0  0  0  0  0
  -27.1506   32.3985  -41.4598 H   0  0  0  0  0  0
  -25.3811   32.4690  -39.1810 H   0  0  0  0  0  0
  -26.1528   34.4323  -41.0128 H   0  0  0  0  0  0
  -24.7414   34.5123  -39.9843 H   0  0  0  0  0  0
  -23.6058   34.6377  -42.0207 H   0  0  0  0  0  0
  -24.8620   33.7423  -42.8907 H   0  0  0  0  0  0
  -21.7790   32.8436  -42.6601 H   0  0  0  0  0  0
  -22.0540   31.1844  -42.2111 H   0  0  0  0  0  0
  -21.2643   32.6201  -44.9475 H   0  0  0  0  0  0
  -22.0167   32.1910  -47.2523 H   0  0  0  0  0  0
  -24.1919   31.0915  -47.6555 H   0  0  0  0  0  0
  -25.6071   30.3826  -45.7555 H   0  0  0  0  0  0
  -24.8595   30.7937  -43.4440 H   0  0  0  0  0  0
  1  2  2  0  0  0
  1  4  1  0  0  0
  1 25  1  0  0  0
  2  3  1  0  0  0
  2  7  1  0  0  0
  3  6  2  0  0  0
  3 26  1  0  0  0
  4  5  2  0  0  0
  4 27  1  0  0  0
  5  6  1  0  0  0
  5 11  1  0  0  0
  6 28  1  0  0  0
  7  8  1  0  0  0
  7  9  2  0  0  0
  8 10  1  0  0  0
  8 29  1  0  0  0
 10 30  1  0  0  0
 11 12  1  0  0  0
 11 31  1  0  0  0
 12 13  1  0  0  0
 12 16  1  0  0  0
 12 32  1  0  0  0
 13 14  1  0  0  0
 13 33  1  0  0  0
 13 34  1  0  0  0
 14 15  1  0  0  0
 14 35  1  0  0  0
 14 36  1  0  0  0
 15 16  1  0  0  0
 15 18  1  0  0  0
 16 17  2  0  0  0
 18 19  1  0  0  0
 18 37  1  0  0  0
 18 38  1  0  0  0
 19 20  2  0  0  0
 19 24  1  0  0  0
 20 21  1  0  0  0
 20 39  1  0  0  0
 21 22  2  0  0  0
 21 40  1  0  0  0
 22 23  1  0  0  0
 22 41  1  0  0  0
 23 24  2  0  0  0
 23 42  1  0  0  0
 24 43  1  0  0  0
M  END
> <s_m_entry_id>
52921

> <s_m_entry_name>
dock_pv.140

> <s_m_Source_Path>
/home/csk/Desktop/cluster/DUD-E-result/hdac8

> <s_m_Source_File>
dock_pv.maegz

> <i_m_Source_File_Index>
140

> <chembl_id>
CHEMBL3415451

> <chembl_pref_name>
None

> <i_lp_mmshare_version>
53161

> <i_f3d_flags>
0

> <r_lp_tautomer_probability>
1

> <s_lp_Force_Field>
OPLS_2005

> <r_lp_Energy>
34.229853

> <b_lp_Chiralities_Consistent>
1

> <s_lp_Variant>
CHEMBL3192_lig681-1

> <s_i_glide_gridfile>
glide-grid_3f07

> <i_i_glide_lignum>
712

> <i_i_glide_rotatable_bonds>
7

> <r_i_docking_score>
-7.82682532995755

> <r_i_glide_ligand_efficiency>
-0.326117722081565

> <r_i_glide_ligand_efficiency_sa>
-0.940686288087018

> <r_i_glide_ligand_efficiency_ln>
-1.87331845107073

> <r_i_glide_gscore>
-7.82682532995755

> <r_i_glide_lipo>
-1.18118144384569

> <r_i_glide_hbond>
-0.608

> <r_i_glide_metal>
-2.3

> <r_i_glide_rewards>
-1.44904614718655

> <r_i_glide_evdw>
-20.2054996490479

> <r_i_glide_ecoul>
-13.7483177185059

> <r_i_glide_erotb>
1.06216596650853

> <r_i_glide_esite>
-0.278241065205569

> <r_i_glide_emodel>
-54.4834905052481

> <r_i_glide_energy>
-33.9538173675537

> <r_i_glide_einternal>
2.43223452568054

> <i_i_glide_confnum>
54

> <i_i_glide_posenum>
281

> <r_i_glide_eff_state_penalty>
0

> <s_user_duplicate_titles>
CHEMBL3192_lig681

> <s_m_subgroup_title>
dock_pv

> <s_m_subgroupid>
dock_pv

> <b_m_subgroup_collapsed>
1

$$$$
CHEMBL3192_lig1042
                    3D
 Schrodinger Suite 2021-1.
 50 53  0  0  1  0            999 V2000
  -30.2898   36.4691  -48.4291 C   0  0  0  0  0  0
  -29.4122   35.4576  -47.7155 C   0  0  0  0  0  0
  -28.9586   34.3269  -48.3914 C   0  0  0  0  0  0
  -28.1664   33.3879  -47.7336 C   0  0  0  0  0  0
  -27.7845   33.5602  -46.3921 C   0  0  0  0  0  0
  -28.2535   34.7108  -45.7232 C   0  0  0  0  0  0
  -27.9252   34.9628  -44.4350 F   0  0  0  0  0  0
  -29.0571   35.6433  -46.3808 C   0  0  0  0  0  0
  -26.8967   32.5454  -45.7331 C   0  0  0  0  0  0
  -25.9748   31.7743  -46.4586 C   0  0  0  0  0  0
  -25.1863   30.8689  -45.7474 C   0  0  0  0  0  0
  -25.2901   30.7086  -44.4061 N   0  0  0  0  0  0
  -26.1912   31.4966  -43.7700 C   0  0  0  0  0  0
  -26.2218   31.3530  -42.3778 N   0  0  0  0  0  0
  -27.1319   32.0867  -41.4935 C   0  0  2  0  0  0
  -26.3809   32.5246  -40.2281 C   0  0  0  0  0  0
  -25.8286   31.3141  -39.4554 C   0  0  0  0  0  0
  -26.8367   30.1669  -39.3484 C   0  0  0  0  0  0
  -26.5526   29.1045  -38.5137 C   0  0  0  0  0  0
  -27.4129   28.0276  -38.3810 C   0  0  0  0  0  0
  -28.6354   27.9843  -39.0250 C   0  0  0  0  0  0
  -28.9111   29.0253  -39.9258 C   0  0  0  0  0  0
  -28.0215   30.1036  -40.1069 C   0  0  0  0  0  0
  -28.3359   31.1950  -41.1129 C   0  0  0  0  0  0
  -29.6210   26.8690  -38.7206 C   0  0  0  0  0  0
  -30.4065   26.4733  -39.5810 O   0  0  0  0  0  0
  -29.7053   26.4662  -37.4429 N   0  0  0  0  0  0
  -30.5693   25.3992  -37.1308 O   0  0  0  0  0  0
  -27.0037   32.4020  -44.3812 N   0  0  0  0  0  0
  -30.3603   37.4087  -47.8796 H   0  0  0  0  0  0
  -29.8768   36.6979  -49.4126 H   0  0  0  0  0  0
  -31.2912   36.0631  -48.5762 H   0  0  0  0  0  0
  -29.2389   34.1607  -49.4218 H   0  0  0  0  0  0
  -27.8578   32.5125  -48.2855 H   0  0  0  0  0  0
  -29.3996   36.5156  -45.8441 H   0  0  0  0  0  0
  -25.8515   31.8826  -47.5250 H   0  0  0  0  0  0
  -24.4457   30.2631  -46.2478 H   0  0  0  0  0  0
  -25.6798   30.6043  -41.9733 H   0  0  0  0  0  0
  -27.5034   32.9712  -42.0140 H   0  0  0  0  0  0
  -27.0493   33.0934  -39.5812 H   0  0  0  0  0  0
  -25.5680   33.2081  -40.4791 H   0  0  0  0  0  0
  -25.5075   31.6339  -38.4619 H   0  0  0  0  0  0
  -24.9311   30.9429  -39.9537 H   0  0  0  0  0  0
  -25.6148   29.1001  -37.9810 H   0  0  0  0  0  0
  -27.1239   27.2569  -37.6868 H   0  0  0  0  0  0
  -29.8366   29.0226  -40.4823 H   0  0  0  0  0  0
  -28.6962   30.6709  -41.9810 H   0  0  0  0  0  0
  -29.1497   31.8073  -40.7314 H   0  0  0  0  0  0
  -29.1398   26.7783  -36.6595 H   0  0  0  0  0  0
  -29.9770   24.6497  -37.0025 H   0  0  0  0  0  0
  1  2  1  0  0  0
  1 30  1  0  0  0
  1 31  1  0  0  0
  1 32  1  0  0  0
  2  3  2  0  0  0
  2  8  1  0  0  0
  3  4  1  0  0  0
  3 33  1  0  0  0
  4  5  2  0  0  0
  4 34  1  0  0  0
  5  6  1  0  0  0
  5  9  1  0  0  0
  6  7  1  0  0  0
  6  8  2  0  0  0
  8 35  1  0  0  0
  9 10  2  0  0  0
  9 29  1  0  0  0
 10 11  1  0  0  0
 10 36  1  0  0  0
 11 12  2  0  0  0
 11 37  1  0  0  0
 12 13  1  0  0  0
 13 14  1  0  0  0
 13 29  2  0  0  0
 14 15  1  0  0  0
 14 38  1  0  0  0
 15 16  1  0  0  0
 15 24  1  0  0  0
 15 39  1  0  0  0
 16 17  1  0  0  0
 16 40  1  0  0  0
 16 41  1  0  0  0
 17 18  1  0  0  0
 17 42  1  0  0  0
 17 43  1  0  0  0
 18 19  2  0  0  0
 18 23  1  0  0  0
 19 20  1  0  0  0
 19 44  1  0  0  0
 20 21  2  0  0  0
 20 45  1  0  0  0
 21 22  1  0  0  0
 21 25  1  0  0  0
 22 23  2  0  0  0
 22 46  1  0  0  0
 23 24  1  0  0  0
 24 47  1  0  0  0
 24 48  1  0  0  0
 25 26  2  0  0  0
 25 27  1  0  0  0
 27 28  1  0  0  0
 27 49  1  0  0  0
 28 50  1  0  0  0
M  END
> <s_m_entry_id>
52922

> <s_m_entry_name>
dock_pv.141

> <s_m_Source_Path>
/home/csk/Desktop/cluster/DUD-E-result/hdac8

> <s_m_Source_File>
dock_pv.maegz

> <i_m_Source_File_Index>
141

> <chembl_id>
CHEMBL3694291

> <chembl_pref_name>
None

> <i_lp_mmshare_version>
53161

> <i_f3d_flags>
0

> <r_lp_tautomer_probability>
0.999999987636

> <s_lp_Force_Field>
OPLS_2005

> <r_lp_Energy>
31.8631

> <b_lp_Chiralities_Consistent>
1

> <s_lp_Variant>
CHEMBL3192_lig1042-1

> <s_i_glide_gridfile>
glide-grid_3f07

> <i_i_glide_lignum>
1123

> <i_i_glide_rotatable_bonds>
6

> <r_i_docking_score>
-7.82109436849639

> <r_i_glide_ligand_efficiency>
-0.269692909258496

> <r_i_glide_ligand_efficiency_sa>
-0.828582061953018

> <r_i_glide_ligand_efficiency_ln>
-1.79083228454451

> <r_i_glide_gscore>
-7.82109436849639

> <r_i_glide_lipo>
-1.28902519238781

> <r_i_glide_hbond>
-0.608

> <r_i_glide_metal>
-2.3

> <r_i_glide_rewards>
-1.05250316394436

> <r_i_glide_evdw>
-23.0780868530273

> <r_i_glide_ecoul>
-12.4213380813599

> <r_i_glide_erotb>
0.633923797007476

> <r_i_glide_esite>
-0.188384754316347

> <r_i_glide_emodel>
-53.5185457164291

> <r_i_glide_energy>
-35.4994249343872

> <r_i_glide_einternal>
1.26758897304535

> <i_i_glide_confnum>
82

> <i_i_glide_posenum>
346

> <r_i_glide_eff_state_penalty>
0

> <s_user_duplicate_titles>
CHEMBL3192_lig1042

> <s_m_subgroup_title>
dock_pv

> <s_m_subgroupid>
dock_pv

> <b_m_subgroup_collapsed>
1

$$$$
CHEMBL3192_lig1039
                    3D
 Schrodinger Suite 2021-1.
 47 50  0  0  1  0            999 V2000
  -30.2130   25.3633  -37.2782 O   0  0  0  0  0  0
  -29.4130   26.4975  -37.5233 N   0  0  0  0  0  0
  -29.4130   27.0293  -38.7504 C   0  0  0  0  0  0
  -30.2391   26.6683  -39.5810 O   0  0  0  0  0  0
  -28.4481   28.1610  -39.0334 C   0  0  0  0  0  0
  -27.2384   28.2141  -38.3667 C   0  0  0  0  0  0
  -26.3491   29.2683  -38.5287 C   0  0  0  0  0  0
  -26.6015   30.2864  -39.4259 C   0  0  0  0  0  0
  -25.5396   31.3661  -39.6341 C   0  0  0  0  0  0
  -26.0849   32.5959  -40.3810 C   0  0  0  0  0  0
  -26.9294   32.1855  -41.5950 C   0  0  2  0  0  0
  -28.1378   31.3434  -41.1356 C   0  0  0  0  0  0
  -27.8062   30.2407  -40.1547 C   0  0  0  0  0  0
  -28.7156   29.1865  -39.9489 C   0  0  0  0  0  0
  -26.1060   31.4217  -42.5366 N   0  0  0  0  0  0
  -26.1451   31.5868  -43.9266 C   0  0  0  0  0  0
  -25.2546   30.8323  -44.6165 N   0  0  0  0  0  0
  -25.2109   31.0234  -45.9578 C   0  0  0  0  0  0
  -26.0536   31.9173  -46.6171 C   0  0  0  0  0  0
  -26.9645   32.6470  -45.8383 C   0  0  0  0  0  0
  -27.0038   32.4843  -44.4840 N   0  0  0  0  0  0
  -27.8790   33.6791  -46.4260 C   0  0  0  0  0  0
  -28.4228   34.7094  -45.6382 C   0  0  0  0  0  0
  -29.2385   35.6941  -46.1951 C   0  0  0  0  0  0
  -29.5271   35.6690  -47.5569 C   0  0  0  0  0  0
  -29.0130   34.6506  -48.3558 C   0  0  0  0  0  0
  -29.3898   34.6008  -50.0391 Cl  0  0  0  0  0  0
  -28.2059   33.6628  -47.7924 C   0  0  0  0  0  0
  -29.5816   24.6351  -37.2316 H   0  0  0  0  0  0
  -28.8473   26.7769  -36.7266 H   0  0  0  0  0  0
  -27.0065   27.4406  -37.6513 H   0  0  0  0  0  0
  -25.4189   29.2669  -37.9810 H   0  0  0  0  0  0
  -25.1144   31.6690  -38.6761 H   0  0  0  0  0  0
  -24.7136   30.9333  -40.2001 H   0  0  0  0  0  0
  -26.6894   33.1945  -39.6977 H   0  0  0  0  0  0
  -25.2600   33.2433  -40.6833 H   0  0  0  0  0  0
  -27.3062   33.0815  -42.0903 H   0  0  0  0  0  0
  -28.6130   30.8689  -41.9810 H   0  0  0  0  0  0
  -28.8765   31.9983  -40.6768 H   0  0  0  0  0  0
  -29.6456   29.1861  -40.4996 H   0  0  0  0  0  0
  -25.5409   30.6726  -42.1666 H   0  0  0  0  0  0
  -24.4632   30.4690  -46.5022 H   0  0  0  0  0  0
  -25.9674   32.0535  -47.6840 H   0  0  0  0  0  0
  -28.1998   34.7659  -44.5828 H   0  0  0  0  0  0
  -29.6399   36.4804  -45.5729 H   0  0  0  0  0  0
  -30.1597   36.4297  -47.9901 H   0  0  0  0  0  0
  -27.8404   32.8790  -48.4380 H   0  0  0  0  0  0
  1  2  1  0  0  0
  1 29  1  0  0  0
  2  3  1  0  0  0
  2 30  1  0  0  0
  3  4  2  0  0  0
  3  5  1  0  0  0
  5  6  2  0  0  0
  5 14  1  0  0  0
  6  7  1  0  0  0
  6 31  1  0  0  0
  7  8  2  0  0  0
  7 32  1  0  0  0
  8  9  1  0  0  0
  8 13  1  0  0  0
  9 10  1  0  0  0
  9 33  1  0  0  0
  9 34  1  0  0  0
 10 11  1  0  0  0
 10 35  1  0  0  0
 10 36  1  0  0  0
 11 12  1  0  0  0
 11 15  1  0  0  0
 11 37  1  0  0  0
 12 13  1  0  0  0
 12 38  1  0  0  0
 12 39  1  0  0  0
 13 14  2  0  0  0
 14 40  1  0  0  0
 15 16  1  0  0  0
 15 41  1  0  0  0
 16 17  2  0  0  0
 16 21  1  0  0  0
 17 18  1  0  0  0
 18 19  2  0  0  0
 18 42  1  0  0  0
 19 20  1  0  0  0
 19 43  1  0  0  0
 20 21  2  0  0  0
 20 22  1  0  0  0
 22 23  2  0  0  0
 22 28  1  0  0  0
 23 24  1  0  0  0
 23 44  1  0  0  0
 24 25  2  0  0  0
 24 45  1  0  0  0
 25 26  1  0  0  0
 25 46  1  0  0  0
 26 27  1  0  0  0
 26 28  2  0  0  0
 28 47  1  0  0  0
M  END
> <s_m_entry_id>
52923

> <s_m_entry_name>
dock_pv.142

> <s_m_Source_Path>
/home/csk/Desktop/cluster/DUD-E-result/hdac8

> <s_m_Source_File>
dock_pv.maegz

> <i_m_Source_File_Index>
142

> <chembl_id>
CHEMBL3357480

> <chembl_pref_name>
None

> <i_lp_mmshare_version>
53161

> <i_f3d_flags>
0

> <r_lp_tautomer_probability>
0.999999987636

> <s_lp_Force_Field>
OPLS_2005

> <r_lp_Energy>
20.952869

> <b_lp_Chiralities_Consistent>
1

> <s_lp_Variant>
CHEMBL3192_lig1039-1

> <s_i_glide_gridfile>
glide-grid_3f07

> <i_i_glide_lignum>
1117

> <i_i_glide_rotatable_bonds>
6

> <r_i_docking_score>
-7.81833881569177

> <r_i_glide_ligand_efficiency>
-0.279226386274706

> <r_i_glide_ligand_efficiency_sa>
-0.847895764276678

> <r_i_glide_ligand_efficiency_ln>
-1.80470215506414

> <r_i_glide_gscore>
-7.81833881569177

> <r_i_glide_lipo>
-1.29162739595873

> <r_i_glide_hbond>
-0.605500061846887

> <r_i_glide_metal>
-2.3

> <r_i_glide_rewards>
-0.969798094206054

> <r_i_glide_evdw>
-22.5795574188232

> <r_i_glide_ecoul>
-13.0092964172363

> <r_i_glide_erotb>
0.626935321326681

> <r_i_glide_esite>
-0.197976251480168

> <r_i_glide_emodel>
-53.7492899944089

> <r_i_glide_energy>
-35.5888538360596

> <r_i_glide_einternal>
0.798428952693939

> <i_i_glide_confnum>
57

> <i_i_glide_posenum>
277

> <r_i_glide_eff_state_penalty>
0

> <s_user_duplicate_titles>
CHEMBL3192_lig1039

> <s_m_subgroup_title>
dock_pv

> <s_m_subgroupid>
dock_pv

> <b_m_subgroup_collapsed>
1

$$$$
CHEMBL3192_lig215
                    3D
 Schrodinger Suite 2021-1.
 61 62  0  0  1  0            999 V2000
  -26.9777   28.8450  -38.6860 C   0  0  0  0  0  0
  -28.1937   28.9120  -39.3669 C   0  0  0  0  0  0
  -28.3816   29.9568  -40.2692 C   0  0  0  0  0  0
  -25.9648   29.7582  -38.9417 C   0  0  0  0  0  0
  -26.1422   30.7815  -39.8675 C   0  0  0  0  0  0
  -27.3830   30.9093  -40.5105 C   0  0  0  0  0  0
  -25.1374   32.5330  -41.5004 C   0  0  2  0  0  0
  -25.0096   31.7540  -40.1596 C   0  0  0  0  0  0
  -26.5348   33.0092  -41.6303 N   0  0  0  0  0  0
  -27.6409   32.0354  -41.4939 C   0  0  0  0  0  0
  -26.7611   34.2187  -42.3218 C   0  0  0  0  0  0
  -28.1019   34.4714  -42.4876 O   0  0  0  0  0  0
  -28.6562   35.6025  -43.1799 C   0  0  0  0  0  0
  -28.2665   35.5789  -44.6761 C   0  0  0  0  0  0
  -28.2494   36.9391  -42.5147 C   0  0  0  0  0  0
  -30.1800   35.4182  -43.0450 C   0  0  0  0  0  0
  -24.7335   31.6979  -42.7445 C   0  0  0  0  0  0
  -24.6851   30.4693  -42.7013 O   0  0  0  0  0  0
  -24.4424   32.4053  -43.8523 N   0  0  0  0  0  0
  -24.0234   31.9142  -45.1706 C   0  0  0  0  0  0
  -22.6630   31.1824  -45.0853 C   0  0  0  0  0  0
  -24.4098   33.3470  -41.5016 H   0  0  0  0  0  0
  -29.2139   27.9933  -39.2156 O   0  0  0  0  0  0
  -29.2081   27.1483  -38.0597 C   0  0  0  0  0  0
  -30.3093   26.0943  -38.1662 C   0  0  0  0  0  0
  -31.0130   26.0690  -39.1810 O   0  0  0  0  0  0
  -30.4464   25.2689  -37.1158 N   0  0  0  0  0  0
  -31.4130   24.2547  -37.1817 O   0  0  0  0  0  0
  -25.8743   34.9802  -42.7142 O   0  0  0  0  0  0
  -23.8611   33.1448  -46.0848 C   0  0  0  0  0  0
  -25.0923   30.9829  -45.7901 C   0  0  0  0  0  0
  -26.7647   28.0636  -37.9810 H   0  0  0  0  0  0
  -29.3223   30.0261  -40.7954 H   0  0  0  0  0  0
  -25.0199   29.6585  -38.4265 H   0  0  0  0  0  0
  -24.0501   31.2350  -40.1113 H   0  0  0  0  0  0
  -24.9832   32.4690  -39.3414 H   0  0  0  0  0  0
  -28.5589   32.5327  -41.1810 H   0  0  0  0  0  0
  -27.8130   31.5842  -42.4706 H   0  0  0  0  0  0
  -28.5206   34.6229  -45.1358 H   0  0  0  0  0  0
  -28.7831   36.3604  -45.2344 H   0  0  0  0  0  0
  -27.1974   35.7319  -44.8237 H   0  0  0  0  0  0
  -28.4486   36.9260  -41.4424 H   0  0  0  0  0  0
  -27.1892   37.1572  -42.6401 H   0  0  0  0  0  0
  -28.7991   37.7792  -42.9407 H   0  0  0  0  0  0
  -30.4914   35.4354  -42.0006 H   0  0  0  0  0  0
  -30.7248   36.2105  -43.5603 H   0  0  0  0  0  0
  -30.5080   34.4692  -43.4704 H   0  0  0  0  0  0
  -24.5323   33.4094  -43.7788 H   0  0  0  0  0  0
  -22.3095   30.8693  -46.0687 H   0  0  0  0  0  0
  -22.7198   30.2877  -44.4660 H   0  0  0  0  0  0
  -21.8909   31.8216  -44.6547 H   0  0  0  0  0  0
  -28.2650   26.6165  -37.9810 H   0  0  0  0  0  0
  -29.4128   27.7590  -37.1811 H   0  0  0  0  0  0
  -29.8892   25.2358  -36.2717 H   0  0  0  0  0  0
  -30.8953   23.4580  -37.3563 H   0  0  0  0  0  0
  -24.7956   33.6999  -46.1813 H   0  0  0  0  0  0
  -23.1110   33.8367  -45.6978 H   0  0  0  0  0  0
  -23.5483   32.8600  -47.0901 H   0  0  0  0  0  0
  -26.0695   31.4665  -45.8263 H   0  0  0  0  0  0
  -24.8302   30.7024  -46.8098 H   0  0  0  0  0  0
  -25.2082   30.0582  -45.2243 H   0  0  0  0  0  0
  1  4  1  0  0  0
  1  2  2  0  0  0
  1 32  1  0  0  0
  2 23  1  0  0  0
  2  3  1  0  0  0
  3  6  2  0  0  0
  3 33  1  0  0  0
  4  5  2  0  0  0
  4 34  1  0  0  0
  5  8  1  0  0  0
  5  6  1  0  0  0
  6 10  1  0  0  0
  7 17  1  0  0  0
  7  8  1  0  0  0
  7  9  1  0  0  0
  7 22  1  0  0  0
  8 35  1  0  0  0
  8 36  1  0  0  0
  9 10  1  0  0  0
  9 11  1  0  0  0
 10 37  1  0  0  0
 10 38  1  0  0  0
 11 12  1  0  0  0
 11 29  2  0  0  0
 12 13  1  0  0  0
 13 15  1  0  0  0
 13 16  1  0  0  0
 13 14  1  0  0  0
 14 39  1  0  0  0
 14 40  1  0  0  0
 14 41  1  0  0  0
 15 42  1  0  0  0
 15 43  1  0  0  0
 15 44  1  0  0  0
 16 45  1  0  0  0
 16 46  1  0  0  0
 16 47  1  0  0  0
 17 18  2  0  0  0
 17 19  1  0  0  0
 19 20  1  0  0  0
 19 48  1  0  0  0
 20 21  1  0  0  0
 20 30  1  0  0  0
 20 31  1  0  0  0
 21 49  1  0  0  0
 21 50  1  0  0  0
 21 51  1  0  0  0
 23 24  1  0  0  0
 24 25  1  0  0  0
 24 52  1  0  0  0
 24 53  1  0  0  0
 25 26  2  0  0  0
 25 27  1  0  0  0
 27 28  1  0  0  0
 27 54  1  0  0  0
 28 55  1  0  0  0
 30 56  1  0  0  0
 30 57  1  0  0  0
 30 58  1  0  0  0
 31 59  1  0  0  0
 31 60  1  0  0  0
 31 61  1  0  0  0
M  END
> <s_m_entry_id>
52924

> <s_m_entry_name>
dock_pv.143

> <s_m_Source_Path>
/home/csk/Desktop/cluster/DUD-E-result/hdac8

> <s_m_Source_File>
dock_pv.maegz

> <i_m_Source_File_Index>
143

> <chembl_id>
CHEMBL606188

> <chembl_pref_name>
None

> <i_lp_mmshare_version>
53161

> <i_f3d_flags>
0

> <r_lp_tautomer_probability>
1

> <s_lp_Force_Field>
OPLS_2005

> <r_lp_Energy>
34.275854

> <b_lp_Chiralities_Consistent>
1

> <s_lp_Variant>
CHEMBL3192_lig215-1

> <s_i_glide_gridfile>
glide-grid_3f07

> <i_i_glide_lignum>
225

> <i_i_glide_rotatable_bonds>
11

> <r_i_docking_score>
-7.80908406614667

> <r_i_glide_ligand_efficiency>
-0.260302802204889

> <r_i_glide_ligand_efficiency_sa>
-0.808821327484922

> <r_i_glide_ligand_efficiency_ln>
-1.77430898661434

> <r_i_glide_gscore>
-7.80908406614667

> <r_i_glide_lipo>
-1.10416942422524

> <r_i_glide_hbond>
-0.415547951284244

> <r_i_glide_metal>
-2.3

> <r_i_glide_rewards>
-0.70940039528952

> <r_i_glide_evdw>
-33.1189422607422

> <r_i_glide_ecoul>
-15.885871887207

> <r_i_glide_erotb>
0.891718480344705

> <r_i_glide_esite>
-0.132856879574205

> <r_i_glide_emodel>
-74.8420617738009

> <r_i_glide_energy>
-49.0048141479492

> <r_i_glide_einternal>
6.31429576873779

> <i_i_glide_confnum>
10

> <i_i_glide_posenum>
119

> <r_i_glide_eff_state_penalty>
0

> <s_user_duplicate_titles>
CHEMBL3192_lig215

> <s_m_subgroup_title>
dock_pv

> <s_m_subgroupid>
dock_pv

> <b_m_subgroup_collapsed>
1

$$$$
CHEMBL3192_lig845
                    3D
 Schrodinger Suite 2021-1.
 27 28  0  0  1  0            999 V2000
  -24.5857   32.8592  -41.0787 C   0  0  0  0  0  0
  -24.8858   31.7381  -40.2056 N   0  0  0  0  0  0
  -24.0951   31.2690  -39.1810 C   0  0  0  0  0  0
  -24.6302   30.2964  -38.4913 N   0  0  0  0  0  0
  -25.8416   30.0884  -39.0931 C   0  0  0  0  0  0
  -26.8261   29.1418  -38.7817 C   0  0  0  0  0  0
  -27.9866   29.0921  -39.5615 C   0  0  0  0  0  0
  -29.0308   28.0715  -39.3420 C   0  0  0  0  0  0
  -29.1046   27.1491  -38.3527 C   0  0  0  0  0  0
  -30.1854   26.1890  -38.2702 C   0  0  0  0  0  0
  -31.0130   26.0690  -39.1810 O   0  0  0  0  0  0
  -30.2130   25.4638  -37.1405 N   0  0  0  0  0  0
  -31.1967   24.4690  -37.0113 O   0  0  0  0  0  0
  -28.1697   30.0159  -40.5997 C   0  0  0  0  0  0
  -27.2169   30.9824  -40.9300 C   0  0  0  0  0  0
  -26.0443   30.9881  -40.1696 C   0  0  0  0  0  0
  -23.5417   33.1553  -40.9669 H   0  0  0  0  0  0
  -24.7686   32.5736  -42.1149 H   0  0  0  0  0  0
  -25.2272   33.7002  -40.8128 H   0  0  0  0  0  0
  -23.1416   31.7387  -38.9786 H   0  0  0  0  0  0
  -26.6594   28.4409  -37.9810 H   0  0  0  0  0  0
  -29.8130   28.0900  -40.0860 H   0  0  0  0  0  0
  -28.3537   27.1018  -37.5810 H   0  0  0  0  0  0
  -29.5673   25.4951  -36.3630 H   0  0  0  0  0  0
  -30.7168   23.6490  -37.1810 H   0  0  0  0  0  0
  -29.0735   29.9782  -41.1914 H   0  0  0  0  0  0
  -27.3699   31.6705  -41.7481 H   0  0  0  0  0  0
  1  2  1  0  0  0
  1 17  1  0  0  0
  1 18  1  0  0  0
  1 19  1  0  0  0
  2  3  1  0  0  0
  2 16  1  0  0  0
  3  4  2  0  0  0
  3 20  1  0  0  0
  4  5  1  0  0  0
  5  6  2  0  0  0
  5 16  1  0  0  0
  6  7  1  0  0  0
  6 21  1  0  0  0
  7  8  1  0  0  0
  7 14  2  0  0  0
  8  9  2  0  0  0
  8 22  1  0  0  0
  9 10  1  0  0  0
  9 23  1  0  0  0
 10 11  2  0  0  0
 10 12  1  0  0  0
 12 13  1  0  0  0
 12 24  1  0  0  0
 13 25  1  0  0  0
 14 15  1  0  0  0
 14 26  1  0  0  0
 15 16  2  0  0  0
 15 27  1  0  0  0
M  END
> <s_m_entry_id>
52925

> <s_m_entry_name>
dock_pv.144

> <s_m_Source_Path>
/home/csk/Desktop/cluster/DUD-E-result/hdac8

> <s_m_Source_File>
dock_pv.maegz

> <i_m_Source_File_Index>
144

> <chembl_id>
CHEMBL3648315

> <chembl_pref_name>
None

> <i_lp_mmshare_version>
53161

> <i_f3d_flags>
0

> <r_lp_tautomer_probability>
1

> <s_lp_Force_Field>
OPLS_2005

> <r_lp_Energy>
15.171782

> <b_lp_Chiralities_Consistent>
1

> <s_lp_Variant>
CHEMBL3192_lig845-1

> <s_i_glide_gridfile>
glide-grid_3f07

> <i_i_glide_lignum>
902

> <i_i_glide_rotatable_bonds>
4

> <r_i_docking_score>
-7.80702144400642

> <r_i_glide_ligand_efficiency>
-0.487938840250401

> <r_i_glide_ligand_efficiency_sa>
-1.22952883064922

> <r_i_glide_ligand_efficiency_ln>
-2.06940698252721

> <r_i_glide_gscore>
-7.80702144400642

> <r_i_glide_lipo>
-0.857962903563896

> <r_i_glide_hbond>
-0.237510015791425

> <r_i_glide_metal>
-2.3

> <r_i_glide_rewards>
-2.17699203916527

> <r_i_glide_evdw>
-27.715202331543

> <r_i_glide_ecoul>
-11.6376733779907

> <r_i_glide_erotb>
1.06662976200639

> <r_i_glide_esite>
-0.169775124216468

> <r_i_glide_emodel>
-62.8159982482905

> <r_i_glide_energy>
-39.3528757095337

> <r_i_glide_einternal>
0.17518775165081

> <i_i_glide_confnum>
1

> <i_i_glide_posenum>
324

> <r_i_glide_eff_state_penalty>
0

> <s_user_duplicate_titles>
CHEMBL3192_lig845

> <s_m_subgroup_title>
dock_pv

> <s_m_subgroupid>
dock_pv

> <b_m_subgroup_collapsed>
1

$$$$
CHEMBL3192_lig998
                    3D
 Schrodinger Suite 2021-1.
 32 33  0  0  1  0            999 V2000
  -25.4481   33.9773  -41.4388 C   0  0  0  0  0  0
  -24.1069   33.6325  -41.2635 C   0  0  0  0  0  0
  -23.7654   32.3694  -40.7808 C   0  0  0  0  0  0
  -24.7646   31.4568  -40.4561 C   0  0  0  0  0  0
  -26.1119   31.8017  -40.6131 C   0  0  0  0  0  0
  -26.4475   33.0639  -41.1136 C   0  0  0  0  0  0
  -27.1776   30.8332  -40.2215 C   0  0  0  0  0  0
  -26.8173   29.5758  -39.8630 O   0  0  0  0  0  0
  -27.9974   29.0137  -39.5115 C   0  0  0  0  0  0
  -29.0130   29.8264  -39.6703 N   0  0  0  0  0  0
  -28.4753   31.0216  -40.1401 N   0  0  0  0  0  0
  -27.9704   27.5759  -39.0475 C   0  0  0  0  0  0
  -28.9195   27.2690  -37.9810 N   0  0  0  0  0  0
  -29.9564   26.4331  -38.0827 C   0  0  0  0  0  0
  -30.5941   25.9695  -36.7555 C   0  0  0  0  0  0
  -30.3853   26.0690  -39.1810 O   0  0  0  0  0  0
  -31.4116   24.7889  -36.9445 N   0  0  0  0  0  0
  -23.0106   34.6315  -41.5819 C   0  0  0  0  0  0
  -25.7179   34.9553  -41.8093 H   0  0  0  0  0  0
  -22.7287   32.1033  -40.6337 H   0  0  0  0  0  0
  -24.4829   30.4907  -40.0622 H   0  0  0  0  0  0
  -27.4811   33.3474  -41.2413 H   0  0  0  0  0  0
  -27.0130   27.4186  -38.5616 H   0  0  0  0  0  0
  -27.9766   26.8680  -39.8752 H   0  0  0  0  0  0
  -28.6399   27.5649  -37.0450 H   0  0  0  0  0  0
  -31.2048   26.7787  -36.3530 H   0  0  0  0  0  0
  -29.8132   25.7579  -36.0231 H   0  0  0  0  0  0
  -30.8344   23.9887  -37.1810 H   0  0  0  0  0  0
  -31.8719   24.5410  -36.0804 H   0  0  0  0  0  0
  -23.4017   35.5510  -42.0190 H   0  0  0  0  0  0
  -22.4632   34.8831  -40.6722 H   0  0  0  0  0  0
  -22.2980   34.1979  -42.2840 H   0  0  0  0  0  0
  1  2  2  0  0  0
  1  6  1  0  0  0
  1 19  1  0  0  0
  2  3  1  0  0  0
  2 18  1  0  0  0
  3  4  2  0  0  0
  3 20  1  0  0  0
  4  5  1  0  0  0
  4 21  1  0  0  0
  5  6  2  0  0  0
  5  7  1  0  0  0
  6 22  1  0  0  0
  7  8  1  0  0  0
  7 11  2  0  0  0
  8  9  1  0  0  0
  9 10  2  0  0  0
  9 12  1  0  0  0
 10 11  1  0  0  0
 12 13  1  0  0  0
 12 23  1  0  0  0
 12 24  1  0  0  0
 13 14  1  0  0  0
 13 25  1  0  0  0
 14 15  1  0  0  0
 14 16  2  0  0  0
 15 17  1  0  0  0
 15 26  1  0  0  0
 15 27  1  0  0  0
 17 28  1  0  0  0
 17 29  1  0  0  0
 18 30  1  0  0  0
 18 31  1  0  0  0
 18 32  1  0  0  0
M  END
> <s_m_entry_id>
52926

> <s_m_entry_name>
dock_pv.145

> <s_m_Source_Path>
/home/csk/Desktop/cluster/DUD-E-result/hdac8

> <s_m_Source_File>
dock_pv.maegz

> <i_m_Source_File_Index>
145

> <chembl_id>
CHEMBL3914471

> <chembl_pref_name>
None

> <i_lp_mmshare_version>
53161

> <i_f3d_flags>
0

> <r_lp_tautomer_probability>
1

> <s_lp_Force_Field>
OPLS_2005

> <r_lp_Energy>
3.359782

> <b_lp_Chiralities_Consistent>
1

> <s_lp_Variant>
CHEMBL3192_lig998-1

> <s_i_glide_gridfile>
glide-grid_3f07

> <i_i_glide_lignum>
1060

> <i_i_glide_rotatable_bonds>
5

> <r_i_docking_score>
-7.80561597225762

> <r_i_glide_ligand_efficiency>
-0.43364533179209

> <r_i_glide_ligand_efficiency_sa>
-1.13647227033804

> <r_i_glide_ligand_efficiency_ln>
-2.00639333668172

> <r_i_glide_gscore>
-7.80561597225762

> <r_i_glide_lipo>
-0.536826807489493

> <r_i_glide_hbond>
-0.49440190767135

> <r_i_glide_metal>
-2.3

> <r_i_glide_rewards>
-1.78056659332231

> <r_i_glide_evdw>
-26.4626007080078

> <r_i_glide_ecoul>
-15.512059211731

> <r_i_glide_erotb>
1.14924944882316

> <r_i_glide_esite>
-0.193131195437589

> <r_i_glide_emodel>
-63.7319546944941

> <r_i_glide_energy>
-41.9746599197388

> <r_i_glide_einternal>
6.37852144241333

> <i_i_glide_confnum>
3

> <i_i_glide_posenum>
361

> <r_i_glide_eff_state_penalty>
0

> <s_user_duplicate_titles>
CHEMBL3192_lig998

> <s_m_subgroup_title>
dock_pv

> <s_m_subgroupid>
dock_pv

> <b_m_subgroup_collapsed>
1

$$$$
CHEMBL3192_lig492
                    3D
 Schrodinger Suite 2021-1.
 34 35  0  0  1  0            999 V2000
  -24.1032   32.0094  -42.8173 C   0  0  0  0  0  0
  -23.5878   31.8154  -44.0957 C   0  0  0  0  0  0
  -22.2146   31.6553  -44.2641 C   0  0  0  0  0  0
  -21.3513   31.6887  -43.1699 C   0  0  0  0  0  0
  -21.8667   31.8798  -41.8908 C   0  0  0  0  0  0
  -23.2463   32.0335  -41.7094 C   0  0  0  0  0  0
  -28.2208   30.0490  -40.2994 C   0  0  0  0  0  0
  -26.9876   30.2095  -39.6703 C   0  0  0  0  0  0
  -26.5898   29.2676  -38.7118 C   0  0  0  0  0  0
  -27.4130   28.1897  -38.3839 C   0  0  0  0  0  0
  -28.6409   28.0243  -39.0232 C   0  0  0  0  0  0
  -29.0258   28.9683  -39.9800 C   0  0  0  0  0  0
  -29.5646   26.8690  -38.7105 C   0  0  0  0  0  0
  -29.6303   26.4660  -37.4357 N   0  0  0  0  0  0
  -30.3434   26.4690  -39.5810 O   0  0  0  0  0  0
  -30.4697   25.3808  -37.1228 O   0  0  0  0  0  0
  -26.1370   31.4010  -40.0318 C   0  0  0  0  0  0
  -24.8053   31.2443  -39.9182 N   0  0  0  0  0  0
  -26.6656   32.4310  -40.4590 O   0  0  0  0  0  0
  -23.8062   32.2446  -40.3057 C   0  0  0  0  0  0
  -25.1683   32.1423  -42.6899 H   0  0  0  0  0  0
  -24.2492   31.7916  -44.9509 H   0  0  0  0  0  0
  -21.8068   31.5009  -45.2524 H   0  0  0  0  0  0
  -20.2871   31.5642  -43.3162 H   0  0  0  0  0  0
  -21.1939   31.9032  -41.0446 H   0  0  0  0  0  0
  -28.5608   30.7530  -41.0461 H   0  0  0  0  0  0
  -25.6400   29.3652  -38.2057 H   0  0  0  0  0  0
  -27.0749   27.4793  -37.6430 H   0  0  0  0  0  0
  -29.9716   28.8821  -40.4937 H   0  0  0  0  0  0
  -29.0732   26.7950  -36.6516 H   0  0  0  0  0  0
  -29.8622   24.6422  -37.0030 H   0  0  0  0  0  0
  -24.4502   30.3484  -39.6199 H   0  0  0  0  0  0
  -24.2281   33.2525  -40.2632 H   0  0  0  0  0  0
  -23.0036   32.2293  -39.5661 H   0  0  0  0  0  0
  1  2  2  0  0  0
  1  6  1  0  0  0
  1 21  1  0  0  0
  2  3  1  0  0  0
  2 22  1  0  0  0
  3  4  2  0  0  0
  3 23  1  0  0  0
  4  5  1  0  0  0
  4 24  1  0  0  0
  5  6  2  0  0  0
  5 25  1  0  0  0
  6 20  1  0  0  0
  7  8  2  0  0  0
  7 12  1  0  0  0
  7 26  1  0  0  0
  8  9  1  0  0  0
  8 17  1  0  0  0
  9 10  2  0  0  0
  9 27  1  0  0  0
 10 11  1  0  0  0
 10 28  1  0  0  0
 11 12  2  0  0  0
 11 13  1  0  0  0
 12 29  1  0  0  0
 13 14  1  0  0  0
 13 15  2  0  0  0
 14 16  1  0  0  0
 14 30  1  0  0  0
 16 31  1  0  0  0
 17 18  1  0  0  0
 17 19  2  0  0  0
 18 20  1  0  0  0
 18 32  1  0  0  0
 20 33  1  0  0  0
 20 34  1  0  0  0
M  END
> <s_m_entry_id>
52927

> <s_m_entry_name>
dock_pv.146

> <s_m_Source_Path>
/home/csk/Desktop/cluster/DUD-E-result/hdac8

> <s_m_Source_File>
dock_pv.maegz

> <i_m_Source_File_Index>
146

> <chembl_id>
CHEMBL2333341

> <chembl_pref_name>
None

> <i_lp_mmshare_version>
53161

> <i_f3d_flags>
0

> <r_lp_tautomer_probability>
1

> <s_lp_Force_Field>
OPLS_2005

> <r_lp_Energy>
23.382317

> <b_lp_Chiralities_Consistent>
1

> <s_lp_Variant>
CHEMBL3192_lig492-1

> <s_i_glide_gridfile>
glide-grid_3f07

> <i_i_glide_lignum>
513

> <i_i_glide_rotatable_bonds>
7

> <r_i_docking_score>
-7.80504868364558

> <r_i_glide_ligand_efficiency>
-0.390252434182279

> <r_i_glide_ligand_efficiency_sa>
-1.05930808120562

> <r_i_glide_ligand_efficiency_ln>
-1.95334625778203

> <r_i_glide_gscore>
-7.80504868364558

> <r_i_glide_lipo>
-0.896955652592103

> <r_i_glide_hbond>
-0.608

> <r_i_glide_metal>
-2.3

> <r_i_glide_rewards>
-1.8098224296136

> <r_i_glide_evdw>
-19.853199005127

> <r_i_glide_ecoul>
-14.6172475814819

> <r_i_glide_erotb>
1.22400406906171

> <r_i_glide_esite>
-0.229027583022953

> <r_i_glide_emodel>
-54.0943127961886

> <r_i_glide_energy>
-34.4704465866089

> <r_i_glide_einternal>
2.43020296096802

> <i_i_glide_confnum>
2

> <i_i_glide_posenum>
205

> <r_i_glide_eff_state_penalty>
0

> <s_user_duplicate_titles>
CHEMBL3192_lig492

> <s_m_subgroup_title>
dock_pv

> <s_m_subgroupid>
dock_pv

> <b_m_subgroup_collapsed>
1

$$$$
CHEMBL3192_lig249
                    3D
 Schrodinger Suite 2021-1.
 55 58  0  0  1  0            999 V2000
  -25.1275   32.5995  -42.4588 N   0  0  0  0  0  0
  -23.6559   31.8390  -46.2503 C   0  0  0  0  0  0
  -23.5183   33.1541  -45.8107 C   0  0  0  0  0  0
  -23.9644   33.5665  -44.5522 C   0  0  0  0  0  0
  -24.2429   30.8690  -45.4405 C   0  0  0  0  0  0
  -25.2616   30.4691  -43.2140 N   0  0  0  0  0  0
  -24.6906   31.2522  -44.1698 C   0  0  0  0  0  0
  -24.5629   32.5976  -43.7328 C   0  0  0  0  0  0
  -25.4388   31.2661  -42.1906 C   0  0  0  0  0  0
  -25.9012   30.7264  -40.8773 C   0  0  0  0  0  0
  -25.2274   31.0758  -39.7027 C   0  0  0  0  0  0
  -25.6373   30.5644  -38.4790 C   0  0  0  0  0  0
  -26.7015   29.6690  -38.4229 C   0  0  0  0  0  0
  -27.3715   29.2773  -39.5833 C   0  0  0  0  0  0
  -26.9620   29.8149  -40.8085 C   0  0  0  0  0  0
  -28.4793   28.3075  -39.5444 C   0  0  0  0  0  0
  -28.6899   27.3708  -38.5889 C   0  0  0  0  0  0
  -29.8168   26.4690  -38.6326 C   0  0  0  0  0  0
  -29.9573   25.6803  -37.5560 N   0  0  0  0  0  0
  -30.6130   26.4690  -39.5810 O   0  0  0  0  0  0
  -31.0130   24.7526  -37.5358 O   0  0  0  0  0  0
  -25.3723   33.7494  -41.5511 C   0  0  2  0  0  0
  -26.5032   34.6805  -42.0447 C   0  0  0  0  0  0
  -25.9834   35.8422  -42.8974 C   0  0  0  0  0  0
  -24.7770   36.5409  -42.2383 C   0  0  0  0  0  0
  -23.6796   35.6089  -41.9383 N   0  0  2  0  0  0
  -24.0854   34.4773  -41.0836 C   0  0  0  0  0  0
  -22.5307   36.3417  -41.3942 C   0  0  0  0  0  0
  -21.2536   35.4872  -41.3234 C   0  0  0  0  0  0
  -23.2917   31.5686  -47.2311 H   0  0  0  0  0  0
  -23.0460   33.8758  -46.4620 H   0  0  0  0  0  0
  -23.8190   34.5856  -44.2364 H   0  0  0  0  0  0
  -24.3414   29.8484  -45.7758 H   0  0  0  0  0  0
  -24.3838   31.7518  -39.7274 H   0  0  0  0  0  0
  -25.1222   30.8690  -37.5810 H   0  0  0  0  0  0
  -27.0130   29.2809  -37.4704 H   0  0  0  0  0  0
  -27.4658   29.5274  -41.7196 H   0  0  0  0  0  0
  -29.1753   28.4035  -40.3662 H   0  0  0  0  0  0
  -28.0135   27.2690  -37.7528 H   0  0  0  0  0  0
  -29.3631   25.6268  -36.7399 H   0  0  0  0  0  0
  -30.5646   23.8967  -37.5812 H   0  0  0  0  0  0
  -25.8127   33.3295  -40.6511 H   0  0  0  0  0  0
  -27.2745   34.1179  -42.5731 H   0  0  0  0  0  0
  -27.0101   35.1005  -41.1736 H   0  0  0  0  0  0
  -25.7526   35.5355  -43.9155 H   0  0  0  0  0  0
  -26.7832   36.5737  -43.0163 H   0  0  0  0  0  0
  -24.4079   37.3094  -42.9197 H   0  0  0  0  0  0
  -25.0792   37.0606  -41.3267 H   0  0  0  0  0  0
  -24.2496   34.8689  -40.0766 H   0  0  0  0  0  0
  -23.2681   33.7608  -41.0002 H   0  0  0  0  0  0
  -22.3189   37.1945  -42.0416 H   0  0  0  0  0  0
  -22.7679   36.7482  -40.4089 H   0  0  0  0  0  0
  -20.3938   36.1063  -41.0682 H   0  0  0  0  0  0
  -21.3235   34.7096  -40.5627 H   0  0  0  0  0  0
  -21.0426   35.0083  -42.2801 H   0  0  0  0  0  0
  1  8  1  0  0  0
  1  9  1  0  0  0
  1 22  1  0  0  0
  2  3  2  0  0  0
  2  5  1  0  0  0
  2 30  1  0  0  0
  3  4  1  0  0  0
  3 31  1  0  0  0
  4  8  2  0  0  0
  4 32  1  0  0  0
  5  7  2  0  0  0
  5 33  1  0  0  0
  6  7  1  0  0  0
  6  9  2  0  0  0
  7  8  1  0  0  0
  9 10  1  0  0  0
 10 15  1  0  0  0
 10 11  2  0  0  0
 11 12  1  0  0  0
 11 34  1  0  0  0
 12 13  2  0  0  0
 12 35  1  0  0  0
 13 14  1  0  0  0
 13 36  1  0  0  0
 14 15  2  0  0  0
 14 16  1  0  0  0
 15 37  1  0  0  0
 16 17  2  0  0  0
 16 38  1  0  0  0
 17 18  1  0  0  0
 17 39  1  0  0  0
 18 19  1  0  0  0
 18 20  2  0  0  0
 19 21  1  0  0  0
 19 40  1  0  0  0
 21 41  1  0  0  0
 22 23  1  0  0  0
 22 27  1  0  0  0
 22 42  1  0  0  0
 23 24  1  0  0  0
 23 43  1  0  0  0
 23 44  1  0  0  0
 24 25  1  0  0  0
 24 45  1  0  0  0
 24 46  1  0  0  0
 25 26  1  0  0  0
 25 47  1  0  0  0
 25 48  1  0  0  0
 26 27  1  0  0  0
 26 28  1  0  0  0
 27 49  1  0  0  0
 27 50  1  0  0  0
 28 29  1  0  0  0
 28 51  1  0  0  0
 28 52  1  0  0  0
 29 53  1  0  0  0
 29 54  1  0  0  0
 29 55  1  0  0  0
M  END
> <s_m_entry_id>
52928

> <s_m_entry_name>
dock_pv.147

> <s_m_Source_Path>
/home/csk/Desktop/cluster/DUD-E-result/hdac8

> <s_m_Source_File>
dock_pv.maegz

> <i_m_Source_File_Index>
147

> <chembl_id>
CHEMBL1095764

> <chembl_pref_name>
None

> <i_lp_mmshare_version>
53161

> <i_f3d_flags>
0

> <r_lp_tautomer_probability>
1

> <s_lp_Force_Field>
OPLS_2005

> <r_lp_Energy>
39.278159

> <b_lp_Chiralities_Consistent>
1

> <s_lp_Variant>
CHEMBL3192_lig249-1

> <s_i_glide_gridfile>
glide-grid_3f07

> <i_i_glide_lignum>
261

> <i_i_glide_rotatable_bonds>
7

> <r_i_docking_score>
-7.80302550648746

> <r_i_glide_ligand_efficiency>
-0.269069845051292

> <r_i_glide_ligand_efficiency_sa>
-0.826667811307889

> <r_i_glide_ligand_efficiency_ln>
-1.78669497333127

> <r_i_glide_gscore>
-7.80302550648746

> <r_i_glide_lipo>
-1.17014802749272

> <r_i_glide_hbond>
-0.306816895447206

> <r_i_glide_metal>
-2.3

> <r_i_glide_rewards>
-0.929969502673713

> <r_i_glide_evdw>
-27.2476902008057

> <r_i_glide_ecoul>
-14.8446474075317

> <r_i_glide_erotb>
0.639616570681191

> <r_i_glide_esite>
-0.146626030384964

> <r_i_glide_emodel>
-66.4114452942429

> <r_i_glide_energy>
-42.0923376083374

> <r_i_glide_einternal>
4.09987354278564

> <i_i_glide_confnum>
47

> <i_i_glide_posenum>
56

> <r_i_glide_eff_state_penalty>
0

> <s_user_duplicate_titles>
CHEMBL3192_lig249,CHEMBL3192_lig250,625571

> <s_m_subgroup_title>
dock_pv

> <s_m_subgroupid>
dock_pv

> <b_m_subgroup_collapsed>
1

$$$$
CHEMBL3192_lig1031
                    3D
 Schrodinger Suite 2021-1.
 40 42  0  0  1  0            999 V2000
  -30.2134   25.8089  -37.0538 O   0  0  0  0  0  0
  -29.4130   26.8689  -37.5329 N   0  0  0  0  0  0
  -29.4133   27.1301  -38.8384 C   0  0  0  0  0  0
  -30.2124   26.5415  -39.5810 O   0  0  0  0  0  0
  -28.6539   28.3498  -39.3282 C   0  0  0  0  0  0
  -29.2568   29.1641  -40.2892 C   0  0  0  0  0  0
  -28.6373   30.2892  -40.7811 C   0  0  0  0  0  0
  -27.3752   30.6518  -40.3475 C   0  0  0  0  0  0
  -26.7302   31.8739  -40.9886 C   0  0  0  0  0  0
  -25.6928   32.4751  -40.0494 C   0  0  0  0  0  0
  -24.6668   31.4260  -39.5852 C   0  0  1  0  0  0
  -25.3790   30.3135  -38.7811 C   0  0  0  0  0  0
  -26.7322   29.8708  -39.3562 C   0  0  0  0  0  0
  -27.3897   28.7283  -38.8576 C   0  0  0  0  0  0
  -23.9855   30.8697  -40.7509 N   0  0  0  0  0  0
  -23.0961   31.6498  -41.5119 C   0  0  0  0  0  0
  -22.3751   32.7335  -40.9926 C   0  0  0  0  0  0
  -21.4978   33.4228  -41.8304 C   0  0  0  0  0  0
  -21.3470   33.0283  -43.1691 C   0  0  0  0  0  0
  -22.1116   31.9393  -43.6102 C   0  0  0  0  0  0
  -22.9766   31.2694  -42.8082 N   0  0  0  0  0  0
  -20.4234   33.7293  -44.0884 N   0  3  0  0  0  0
  -19.7450   34.6498  -43.6420 O   0  0  0  0  0  0
  -20.3809   33.3682  -45.2625 O   0  5  0  0  0  0
  -29.5766   25.1146  -36.8492 H   0  0  0  0  0  0
  -28.8506   27.3063  -36.8044 H   0  0  0  0  0  0
  -30.2128   28.9095  -40.7052 H   0  0  0  0  0  0
  -29.1304   30.8680  -41.5435 H   0  0  0  0  0  0
  -26.2694   31.5828  -41.9312 H   0  0  0  0  0  0
  -27.4793   32.6292  -41.2376 H   0  0  0  0  0  0
  -25.1999   33.3291  -40.5156 H   0  0  0  0  0  0
  -26.2154   32.8698  -39.1807 H   0  0  0  0  0  0
  -23.9299   31.9075  -38.9390 H   0  0  0  0  0  0
  -25.5819   30.7233  -37.7910 H   0  0  0  0  0  0
  -24.7201   29.4615  -38.6220 H   0  0  0  0  0  0
  -26.9005   28.1381  -38.0965 H   0  0  0  0  0  0
  -24.5417   30.2346  -41.3015 H   0  0  0  0  0  0
  -22.4696   33.0412  -39.9610 H   0  0  0  0  0  0
  -20.9373   34.2553  -41.4330 H   0  0  0  0  0  0
  -22.0348   31.5739  -44.6260 H   0  0  0  0  0  0
  1  2  1  0  0  0
  1 25  1  0  0  0
  2  3  1  0  0  0
  2 26  1  0  0  0
  3  4  2  0  0  0
  3  5  1  0  0  0
  5  6  2  0  0  0
  5 14  1  0  0  0
  6  7  1  0  0  0
  6 27  1  0  0  0
  7  8  2  0  0  0
  7 28  1  0  0  0
  8  9  1  0  0  0
  8 13  1  0  0  0
  9 10  1  0  0  0
  9 29  1  0  0  0
  9 30  1  0  0  0
 10 11  1  0  0  0
 10 31  1  0  0  0
 10 32  1  0  0  0
 11 12  1  0  0  0
 11 15  1  0  0  0
 11 33  1  0  0  0
 12 13  1  0  0  0
 12 34  1  0  0  0
 12 35  1  0  0  0
 13 14  2  0  0  0
 14 36  1  0  0  0
 15 16  1  0  0  0
 15 37  1  0  0  0
 16 17  2  0  0  0
 16 21  1  0  0  0
 17 18  1  0  0  0
 17 38  1  0  0  0
 18 19  2  0  0  0
 18 39  1  0  0  0
 19 20  1  0  0  0
 19 22  1  0  0  0
 20 21  2  0  0  0
 20 40  1  0  0  0
 22 23  2  0  0  0
 22 24  1  0  0  0
M  CHG  2  22   1  24  -1
M  END
> <s_m_entry_id>
52930

> <s_m_entry_name>
dock_pv.149

> <s_m_Source_Path>
/home/csk/Desktop/cluster/DUD-E-result/hdac8

> <s_m_Source_File>
dock_pv.maegz

> <i_m_Source_File_Index>
149

> <chembl_id>
CHEMBL3694285

> <chembl_pref_name>
None

> <i_lp_mmshare_version>
53161

> <i_f3d_flags>
0

> <r_lp_tautomer_probability>
0.999999772200052

> <s_lp_Force_Field>
OPLS_2005

> <r_lp_Energy>
22.760077

> <b_lp_Chiralities_Consistent>
1

> <s_lp_Variant>
CHEMBL3192_lig1031-2

> <s_i_glide_gridfile>
glide-grid_3f07

> <i_i_glide_lignum>
1102

> <i_i_glide_rotatable_bonds>
6

> <r_i_docking_score>
-7.80133768285358

> <r_i_glide_ligand_efficiency>
-0.325055736785566

> <r_i_glide_ligand_efficiency_sa>
-0.937622992416608

> <r_i_glide_ligand_efficiency_ln>
-1.86721808756683

> <r_i_glide_gscore>
-7.80133768285358

> <r_i_glide_lipo>
-1.02216060117149

> <r_i_glide_hbond>
-0.608

> <r_i_glide_metal>
-2.3

> <r_i_glide_rewards>
-1.4901914126929

> <r_i_glide_evdw>
-16.4773712158203

> <r_i_glide_ecoul>
-13.6932735443115

> <r_i_glide_erotb>
0.696873923448563

> <r_i_glide_esite>
-0.2

> <r_i_glide_emodel>
-45.8742445886485

> <r_i_glide_energy>
-30.1706447601318

> <r_i_glide_einternal>
6.03183937072754

> <i_i_glide_confnum>
38

> <i_i_glide_posenum>
306

> <r_i_glide_eff_state_penalty>
0

> <s_user_duplicate_titles>
CHEMBL3192_lig1031

> <s_m_subgroup_title>
dock_pv

> <s_m_subgroupid>
dock_pv

> <b_m_subgroup_collapsed>
1

$$$$
CHEMBL3192_lig1052
                    3D
 Schrodinger Suite 2021-1.
 50 53  0  0  1  0            999 V2000
  -31.0156   35.7057  -44.3144 C   0  0  0  0  0  0
  -30.7023   36.0258  -45.6644 O   0  0  0  0  0  0
  -29.6866   35.3365  -46.2957 C   0  0  0  0  0  0
  -29.4239   35.6558  -47.6268 C   0  0  0  0  0  0
  -28.4634   35.0498  -48.3644 N   0  0  0  0  0  0
  -27.7210   34.0865  -47.7665 C   0  0  0  0  0  0
  -27.8857   33.6812  -46.4323 C   0  0  0  0  0  0
  -28.8982   34.3346  -45.7053 C   0  0  0  0  0  0
  -27.0076   32.6341  -45.8115 C   0  0  0  0  0  0
  -26.1998   31.7703  -46.5685 C   0  0  0  0  0  0
  -25.3932   30.8689  -45.8742 C   0  0  0  0  0  0
  -25.3854   30.7840  -44.5248 N   0  0  0  0  0  0
  -26.1951   31.6421  -43.8620 C   0  0  0  0  0  0
  -26.1150   31.5467  -42.4699 N   0  0  0  0  0  0
  -26.9794   32.2730  -41.5407 C   0  0  2  0  0  0
  -26.1614   32.6726  -40.3014 C   0  0  0  0  0  0
  -25.5778   31.4340  -39.5951 C   0  0  0  0  0  0
  -26.6154   30.3201  -39.4163 C   0  0  0  0  0  0
  -26.3415   29.2739  -38.5474 C   0  0  0  0  0  0
  -27.2318   28.2221  -38.3796 C   0  0  0  0  0  0
  -28.4486   28.1801  -39.0369 C   0  0  0  0  0  0
  -28.7299   29.2251  -39.9302 C   0  0  0  0  0  0
  -27.8278   30.2848  -40.1384 C   0  0  0  0  0  0
  -28.1753   31.3817  -41.1300 C   0  0  0  0  0  0
  -29.4129   27.0455  -38.7755 C   0  0  0  0  0  0
  -30.2678   26.7198  -39.5829 O   0  0  0  0  0  0
  -29.4137   26.4679  -37.5775 N   0  0  0  0  0  0
  -30.2163   25.3228  -37.3735 O   0  0  0  0  0  0
  -27.0101   32.5619  -44.4476 N   0  0  0  0  0  0
  -31.8405   36.3348  -43.9802 H   0  0  0  0  0  0
  -31.3317   34.6659  -44.2135 H   0  0  0  0  0  0
  -30.1684   35.8912  -43.6517 H   0  0  0  0  0  0
  -30.0027   36.4170  -48.1284 H   0  0  0  0  0  0
  -26.9580   33.6583  -48.3981 H   0  0  0  0  0  0
  -29.0651   34.0607  -44.6762 H   0  0  0  0  0  0
  -26.1810   31.7939  -47.6465 H   0  0  0  0  0  0
  -24.7337   30.1877  -46.3867 H   0  0  0  0  0  0
  -25.5712   30.7852  -42.0936 H   0  0  0  0  0  0
  -27.3595   33.1676  -42.0340 H   0  0  0  0  0  0
  -26.7915   33.2255  -39.6045 H   0  0  0  0  0  0
  -25.3595   33.3623  -40.5733 H   0  0  0  0  0  0
  -25.1527   31.7131  -38.6320 H   0  0  0  0  0  0
  -24.7389   31.0476  -40.1746 H   0  0  0  0  0  0
  -25.4061   29.2666  -38.0045 H   0  0  0  0  0  0
  -26.9967   27.4414  -37.6723 H   0  0  0  0  0  0
  -29.6667   29.2336  -40.4683 H   0  0  0  0  0  0
  -28.6040   30.8663  -41.9802 H   0  0  0  0  0  0
  -28.9557   32.0039  -40.6983 H   0  0  0  0  0  0
  -28.8179   26.6956  -36.7914 H   0  0  0  0  0  0
  -29.5913   24.5840  -37.3975 H   0  0  0  0  0  0
  1  2  1  0  0  0
  1 30  1  0  0  0
  1 31  1  0  0  0
  1 32  1  0  0  0
  2  3  1  0  0  0
  3  4  2  0  0  0
  3  8  1  0  0  0
  4  5  1  0  0  0
  4 33  1  0  0  0
  5  6  2  0  0  0
  6  7  1  0  0  0
  6 34  1  0  0  0
  7  8  2  0  0  0
  7  9  1  0  0  0
  8 35  1  0  0  0
  9 10  2  0  0  0
  9 29  1  0  0  0
 10 11  1  0  0  0
 10 36  1  0  0  0
 11 12  2  0  0  0
 11 37  1  0  0  0
 12 13  1  0  0  0
 13 14  1  0  0  0
 13 29  2  0  0  0
 14 15  1  0  0  0
 14 38  1  0  0  0
 15 16  1  0  0  0
 15 24  1  0  0  0
 15 39  1  0  0  0
 16 17  1  0  0  0
 16 40  1  0  0  0
 16 41  1  0  0  0
 17 18  1  0  0  0
 17 42  1  0  0  0
 17 43  1  0  0  0
 18 19  2  0  0  0
 18 23  1  0  0  0
 19 20  1  0  0  0
 19 44  1  0  0  0
 20 21  2  0  0  0
 20 45  1  0  0  0
 21 22  1  0  0  0
 21 25  1  0  0  0
 22 23  2  0  0  0
 22 46  1  0  0  0
 23 24  1  0  0  0
 24 47  1  0  0  0
 24 48  1  0  0  0
 25 26  2  0  0  0
 25 27  1  0  0  0
 27 28  1  0  0  0
 27 49  1  0  0  0
 28 50  1  0  0  0
M  END
> <s_m_entry_id>
52931

> <s_m_entry_name>
dock_pv.150

> <s_m_Source_Path>
/home/csk/Desktop/cluster/DUD-E-result/hdac8

> <s_m_Source_File>
dock_pv.maegz

> <i_m_Source_File_Index>
150

> <chembl_id>
CHEMBL3694300

> <chembl_pref_name>
None

> <i_lp_mmshare_version>
53161

> <i_f3d_flags>
0

> <r_lp_tautomer_probability>
0.999999987636

> <s_lp_Force_Field>
OPLS_2005

> <r_lp_Energy>
31.094285

> <b_lp_Chiralities_Consistent>
1

> <s_lp_Variant>
CHEMBL3192_lig1052-1

> <s_i_glide_gridfile>
glide-grid_3f07

> <i_i_glide_lignum>
1143

> <i_i_glide_rotatable_bonds>
7

> <r_i_docking_score>
-7.79851102764214

> <r_i_glide_ligand_efficiency>
-0.26891417336697

> <r_i_glide_ligand_efficiency_sa>
-0.826189538573403

> <r_i_glide_ligand_efficiency_ln>
-1.785661272153

> <r_i_glide_gscore>
-7.79851102764214

> <r_i_glide_lipo>
-1.28800391522043

> <r_i_glide_hbond>
-0.597351315081553

> <r_i_glide_metal>
-2.3

> <r_i_glide_rewards>
-0.996439137075802

> <r_i_glide_evdw>
-25.1620292663574

> <r_i_glide_ecoul>
-11.9697370529175

> <r_i_glide_erotb>
0.63684536099114

> <r_i_glide_esite>
-0.2

> <r_i_glide_emodel>
-55.1268619553226

> <r_i_glide_energy>
-37.1317663192749

> <r_i_glide_einternal>
1.05998122692108

> <i_i_glide_confnum>
16

> <i_i_glide_posenum>
98

> <r_i_glide_eff_state_penalty>
0

> <s_user_duplicate_titles>
CHEMBL3192_lig1052

> <s_m_subgroup_title>
dock_pv

> <s_m_subgroupid>
dock_pv

> <b_m_subgroup_collapsed>
1

$$$$
CHEMBL3192_lig932
                    3D
 Schrodinger Suite 2021-1.
 40 42  0  0  1  0            999 V2000
  -25.3353   30.4690  -44.5936 C   0  0  0  0  0  0
  -24.0452   30.4690  -45.1120 C   0  0  0  0  0  0
  -22.9845   30.9954  -44.3810 C   0  0  0  0  0  0
  -25.5949   31.0140  -43.3394 C   0  0  0  0  0  0
  -24.5390   31.5847  -42.5720 C   0  0  0  0  0  0
  -23.2133   31.5690  -43.1094 C   0  0  0  0  0  0
  -22.1568   32.1103  -42.4408 N   0  0  0  0  0  0
  -22.4277   32.7015  -41.2537 C   0  0  0  0  0  0
  -23.6365   32.8024  -40.6619 N   0  0  0  0  0  0
  -24.6869   32.2312  -41.3020 C   0  0  0  0  0  0
  -25.9376   32.3277  -40.6521 N   0  0  0  0  0  0
  -26.7926   31.2492  -40.3365 C   0  0  0  0  0  0
  -26.4103   33.6922  -40.3810 C   0  0  0  0  0  0
  -26.2389   30.0160  -39.9782 C   0  0  0  0  0  0
  -27.0612   28.9382  -39.6651 C   0  0  0  0  0  0
  -28.4501   29.0717  -39.7329 C   0  0  0  0  0  0
  -29.0080   30.2936  -40.0995 C   0  0  0  0  0  0
  -28.1852   31.3802  -40.3810 C   0  0  0  0  0  0
  -29.3134   28.0242  -39.5069 O   0  0  0  0  0  0
  -28.9631   27.0622  -38.5062 C   0  0  0  0  0  0
  -30.1563   26.1196  -38.2969 C   0  0  0  0  0  0
  -30.2130   25.3970  -37.1653 N   0  0  0  0  0  0
  -31.0132   26.0690  -39.1810 O   0  0  0  0  0  0
  -31.2580   24.4690  -37.0189 O   0  0  0  0  0  0
  -26.1458   30.0585  -45.1784 H   0  0  0  0  0  0
  -23.8649   30.0690  -46.0976 H   0  0  0  0  0  0
  -21.9826   30.9935  -44.7881 H   0  0  0  0  0  0
  -26.6085   31.0298  -42.9685 H   0  0  0  0  0  0
  -21.5962   33.1428  -40.7220 H   0  0  0  0  0  0
  -25.5919   34.4029  -40.2532 H   0  0  0  0  0  0
  -27.0174   34.0503  -41.2127 H   0  0  0  0  0  0
  -27.0130   33.7328  -39.4727 H   0  0  0  0  0  0
  -25.1664   29.8907  -39.9283 H   0  0  0  0  0  0
  -26.6130   27.9959  -39.3979 H   0  0  0  0  0  0
  -30.0809   30.3946  -40.1677 H   0  0  0  0  0  0
  -28.6276   32.3152  -40.6809 H   0  0  0  0  0  0
  -28.6961   27.5630  -37.5810 H   0  0  0  0  0  0
  -28.1190   26.4690  -38.8500 H   0  0  0  0  0  0
  -29.5461   25.3726  -36.4050 H   0  0  0  0  0  0
  -30.8322   23.6182  -37.1810 H   0  0  0  0  0  0
  1  2  2  0  0  0
  1  4  1  0  0  0
  1 25  1  0  0  0
  2  3  1  0  0  0
  2 26  1  0  0  0
  3  6  2  0  0  0
  3 27  1  0  0  0
  4  5  2  0  0  0
  4 28  1  0  0  0
  5  6  1  0  0  0
  5 10  1  0  0  0
  6  7  1  0  0  0
  7  8  2  0  0  0
  8  9  1  0  0  0
  8 29  1  0  0  0
  9 10  2  0  0  0
 10 11  1  0  0  0
 11 12  1  0  0  0
 11 13  1  0  0  0
 12 14  2  0  0  0
 12 18  1  0  0  0
 13 30  1  0  0  0
 13 31  1  0  0  0
 13 32  1  0  0  0
 14 15  1  0  0  0
 14 33  1  0  0  0
 15 16  2  0  0  0
 15 34  1  0  0  0
 16 17  1  0  0  0
 16 19  1  0  0  0
 17 18  2  0  0  0
 17 35  1  0  0  0
 18 36  1  0  0  0
 19 20  1  0  0  0
 20 21  1  0  0  0
 20 37  1  0  0  0
 20 38  1  0  0  0
 21 22  1  0  0  0
 21 23  2  0  0  0
 22 24  1  0  0  0
 22 39  1  0  0  0
 24 40  1  0  0  0
M  END
> <s_m_entry_id>
52932

> <s_m_entry_name>
dock_pv.151

> <s_m_Source_Path>
/home/csk/Desktop/cluster/DUD-E-result/hdac8

> <s_m_Source_File>
dock_pv.maegz

> <i_m_Source_File_Index>
151

> <chembl_id>
CHEMBL3774793

> <chembl_pref_name>
None

> <i_lp_mmshare_version>
53161

> <i_f3d_flags>
0

> <r_lp_tautomer_probability>
1

> <s_lp_Force_Field>
OPLS_2005

> <r_lp_Energy>
34.209868

> <b_lp_Chiralities_Consistent>
1

> <s_lp_Variant>
CHEMBL3192_lig932-1

> <s_i_glide_gridfile>
glide-grid_3f07

> <i_i_glide_lignum>
993

> <i_i_glide_rotatable_bonds>
7

> <r_i_docking_score>
-7.79602172163718

> <r_i_glide_ligand_efficiency>
-0.324834238401549

> <r_i_glide_ligand_efficiency_sa>
-0.936984080518941

> <r_i_glide_ligand_efficiency_ln>
-1.86594573411418

> <r_i_glide_gscore>
-7.79602172163718

> <r_i_glide_lipo>
-1.14777976511943

> <r_i_glide_hbond>
-0.443975312663376

> <r_i_glide_metal>
-2.3

> <r_i_glide_rewards>
-0.944367699323743

> <r_i_glide_evdw>
-35.3803443908691

> <r_i_glide_ecoul>
-13.9406051635742

> <r_i_glide_erotb>
1.06811291666022

> <r_i_glide_esite>
-0.167903867111256

> <r_i_glide_emodel>
-72.0123378577598

> <r_i_glide_energy>
-49.3209495544434

> <r_i_glide_einternal>
7.98922777175903

> <i_i_glide_confnum>
32

> <i_i_glide_posenum>
396

> <r_i_glide_eff_state_penalty>
0

> <s_user_duplicate_titles>
CHEMBL3192_lig932

> <s_m_subgroup_title>
dock_pv

> <s_m_subgroupid>
dock_pv

> <b_m_subgroup_collapsed>
1

$$$$
CHEMBL3192_lig985
                    3D
 Schrodinger Suite 2021-1.
 26 27  0  0  1  0            999 V2000
  -28.9776   29.1575  -39.8872 C   0  0  0  0  0  0
  -28.7462   27.9916  -39.1238 C   0  0  0  0  0  0
  -27.5499   27.8857  -38.4235 C   0  0  0  0  0  0
  -26.6064   28.8950  -38.4973 C   0  0  0  0  0  0
  -28.0159   30.1694  -39.9633 C   0  0  0  0  0  0
  -26.8107   30.0123  -39.2773 C   0  0  0  0  0  0
  -25.5823   31.2690  -39.3061 S   0  0  0  0  0  0
  -25.9196   31.8949  -40.9858 C   0  0  2  0  0  0
  -27.4130   32.2979  -41.0909 C   0  0  0  0  0  0
  -28.2733   31.3326  -40.6953 N   0  0  0  0  0  0
  -25.5462   30.8635  -42.0768 C   0  0  0  0  0  0
  -27.8130   33.3505  -41.5810 O   0  0  0  0  0  0
  -29.7537   26.8690  -39.1053 C   0  0  0  0  0  0
  -30.6130   26.8690  -39.9810 O   0  0  0  0  0  0
  -29.7367   25.9650  -38.1152 N   0  0  0  0  0  0
  -30.6130   24.8690  -38.2038 O   0  0  0  0  0  0
  -29.8998   29.2771  -40.4379 H   0  0  0  0  0  0
  -27.3200   27.0141  -37.8368 H   0  0  0  0  0  0
  -25.6658   28.8116  -37.9810 H   0  0  0  0  0  0
  -25.3198   32.8004  -41.0884 H   0  0  0  0  0  0
  -29.2296   31.5298  -40.9368 H   0  0  0  0  0  0
  -25.7081   31.2683  -43.0768 H   0  0  0  0  0  0
  -24.4904   30.6003  -42.0055 H   0  0  0  0  0  0
  -26.1132   29.9351  -42.0012 H   0  0  0  0  0  0
  -29.1241   25.9306  -37.3105 H   0  0  0  0  0  0
  -30.0334   24.0942  -38.1240 H   0  0  0  0  0  0
  1  5  1  0  0  0
  1  2  2  0  0  0
  1 17  1  0  0  0
  2  3  1  0  0  0
  2 13  1  0  0  0
  3  4  2  0  0  0
  3 18  1  0  0  0
  4  6  1  0  0  0
  4 19  1  0  0  0
  5  6  2  0  0  0
  5 10  1  0  0  0
  6  7  1  0  0  0
  7  8  1  0  0  0
  8  9  1  0  0  0
  8 11  1  0  0  0
  8 20  1  0  0  0
  9 10  1  0  0  0
  9 12  2  0  0  0
 10 21  1  0  0  0
 11 22  1  0  0  0
 11 23  1  0  0  0
 11 24  1  0  0  0
 13 14  2  0  0  0
 13 15  1  0  0  0
 15 16  1  0  0  0
 15 25  1  0  0  0
 16 26  1  0  0  0
M  END
> <s_m_entry_id>
52933

> <s_m_entry_name>
dock_pv.152

> <s_m_Source_Path>
/home/csk/Desktop/cluster/DUD-E-result/hdac8

> <s_m_Source_File>
dock_pv.maegz

> <i_m_Source_File_Index>
152

> <chembl_id>
CHEMBL3800287

> <chembl_pref_name>
None

> <i_lp_mmshare_version>
53161

> <i_f3d_flags>
0

> <r_lp_tautomer_probability>
1

> <s_lp_Force_Field>
OPLS_2005

> <r_lp_Energy>
22.337212

> <b_lp_Chiralities_Consistent>
1

> <s_lp_Variant>
CHEMBL3192_lig985-1

> <s_i_glide_gridfile>
glide-grid_3f07

> <i_i_glide_lignum>
1046

> <i_i_glide_rotatable_bonds>
3

> <r_i_docking_score>
-7.79537242122723

> <r_i_glide_ligand_efficiency>
-0.487210776326702

> <r_i_glide_ligand_efficiency_sa>
-1.22769422452464

> <r_i_glide_ligand_efficiency_ln>
-2.06631917634508

> <r_i_glide_gscore>
-7.79537242122723

> <r_i_glide_lipo>
-0.826963583725215

> <r_i_glide_hbond>
-0.304

> <r_i_glide_metal>
-2.3

> <r_i_glide_rewards>
-1.94426326782727

> <r_i_glide_evdw>
-11.3708648681641

> <r_i_glide_ecoul>
-14.7405872344971

> <r_i_glide_erotb>
0.607969610363975

> <r_i_glide_esite>
-0.248483851455959

> <r_i_glide_emodel>
-40.9969859959299

> <r_i_glide_energy>
-26.1114521026611

> <r_i_glide_einternal>
1.32260227203369

> <i_i_glide_confnum>
1

> <i_i_glide_posenum>
293

> <r_i_glide_eff_state_penalty>
0

> <s_user_duplicate_titles>
CHEMBL3192_lig985

> <s_m_subgroup_title>
dock_pv

> <s_m_subgroupid>
dock_pv

> <b_m_subgroup_collapsed>
1

$$$$
CHEMBL3192_lig1000
                    3D
 Schrodinger Suite 2021-1.
 29 30  0  0  1  0            999 V2000
  -25.3915   34.0327  -41.2229 C   0  0  0  0  0  0
  -24.0619   33.6239  -41.1716 C   0  0  0  0  0  0
  -23.7359   32.3255  -40.7904 C   0  0  0  0  0  0
  -24.7476   31.4282  -40.4590 C   0  0  0  0  0  0
  -26.0890   31.8282  -40.5080 C   0  0  0  0  0  0
  -26.4046   33.1363  -40.8915 C   0  0  0  0  0  0
  -27.1667   30.8645  -40.1334 C   0  0  0  0  0  0
  -26.8207   29.5888  -39.8332 O   0  0  0  0  0  0
  -28.0024   29.0298  -39.4834 C   0  0  0  0  0  0
  -29.0108   29.8624  -39.5906 N   0  0  0  0  0  0
  -28.4606   31.0677  -40.0220 N   0  0  0  0  0  0
  -27.9779   27.5814  -39.0512 C   0  0  0  0  0  0
  -28.9196   27.2690  -37.9810 N   0  0  0  0  0  0
  -29.9570   26.4330  -38.0826 C   0  0  0  0  0  0
  -30.5948   25.9694  -36.7554 C   0  0  0  0  0  0
  -30.3864   26.0691  -39.1810 O   0  0  0  0  0  0
  -31.4130   24.7887  -36.9445 N   0  0  0  0  0  0
  -23.0809   34.4940  -41.4996 F   0  0  0  0  0  0
  -25.6306   35.0452  -41.5109 H   0  0  0  0  0  0
  -22.7007   32.0228  -40.7416 H   0  0  0  0  0  0
  -24.4797   30.4265  -40.1540 H   0  0  0  0  0  0
  -27.4315   33.4657  -40.9285 H   0  0  0  0  0  0
  -27.0130   27.4100  -38.5809 H   0  0  0  0  0  0
  -27.9978   26.8816  -39.8870 H   0  0  0  0  0  0
  -28.6367   27.5621  -37.0450 H   0  0  0  0  0  0
  -31.2063   26.7787  -36.3534 H   0  0  0  0  0  0
  -29.8138   25.7584  -36.0226 H   0  0  0  0  0  0
  -30.8356   23.9883  -37.1809 H   0  0  0  0  0  0
  -31.8738   24.5410  -36.0804 H   0  0  0  0  0  0
  1  2  2  0  0  0
  1  6  1  0  0  0
  1 19  1  0  0  0
  2  3  1  0  0  0
  2 18  1  0  0  0
  3  4  2  0  0  0
  3 20  1  0  0  0
  4  5  1  0  0  0
  4 21  1  0  0  0
  5  6  2  0  0  0
  5  7  1  0  0  0
  6 22  1  0  0  0
  7  8  1  0  0  0
  7 11  2  0  0  0
  8  9  1  0  0  0
  9 10  2  0  0  0
  9 12  1  0  0  0
 10 11  1  0  0  0
 12 13  1  0  0  0
 12 23  1  0  0  0
 12 24  1  0  0  0
 13 14  1  0  0  0
 13 25  1  0  0  0
 14 15  1  0  0  0
 14 16  2  0  0  0
 15 17  1  0  0  0
 15 26  1  0  0  0
 15 27  1  0  0  0
 17 28  1  0  0  0
 17 29  1  0  0  0
M  END
> <s_m_entry_id>
52934

> <s_m_entry_name>
dock_pv.153

> <s_m_Source_Path>
/home/csk/Desktop/cluster/DUD-E-result/hdac8

> <s_m_Source_File>
dock_pv.maegz

> <i_m_Source_File_Index>
153

> <chembl_id>
CHEMBL3949111

> <chembl_pref_name>
None

> <i_lp_mmshare_version>
53161

> <i_f3d_flags>
0

> <r_lp_tautomer_probability>
1

> <s_lp_Force_Field>
OPLS_2005

> <r_lp_Energy>
3.800037

> <b_lp_Chiralities_Consistent>
1

> <s_lp_Variant>
CHEMBL3192_lig1000-1

> <s_i_glide_gridfile>
glide-grid_3f07

> <i_i_glide_lignum>
1062

> <i_i_glide_rotatable_bonds>
5

> <r_i_docking_score>
-7.79530376512771

> <r_i_glide_ligand_efficiency>
-0.433072431395984

> <r_i_glide_ligand_efficiency_sa>
-1.13497084655665

> <r_i_glide_ligand_efficiency_ln>
-2.00374263701299

> <r_i_glide_gscore>
-7.79530376512771

> <r_i_glide_lipo>
-0.532558479833021

> <r_i_glide_hbond>
-0.494710145618268

> <r_i_glide_metal>
-2.3

> <r_i_glide_rewards>
-1.76022787096456

> <r_i_glide_evdw>
-26.2536373138428

> <r_i_glide_ecoul>
-15.3703603744507

> <r_i_glide_erotb>
1.11824303876566

> <r_i_glide_esite>
-0.207814385617788

> <r_i_glide_emodel>
-63.2273768950838

> <r_i_glide_energy>
-41.6239976882935

> <r_i_glide_einternal>
6.48171043395996

> <i_i_glide_confnum>
5

> <i_i_glide_posenum>
366

> <r_i_glide_eff_state_penalty>
0

> <s_user_duplicate_titles>
CHEMBL3192_lig1000

> <s_m_subgroup_title>
dock_pv

> <s_m_subgroupid>
dock_pv

> <b_m_subgroup_collapsed>
1

$$$$
CHEMBL3192_lig809
                    3D
 Schrodinger Suite 2021-1.
 58 59  0  0  1  0            999 V2000
  -29.4144   34.8702  -46.4507 C   0  0  0  0  0  0
  -28.6137   34.5183  -47.7082 C   0  0  0  0  0  0
  -27.3432   33.7102  -47.4126 C   0  0  0  0  0  0
  -27.6316   32.2935  -46.8843 C   0  0  0  0  0  0
  -26.3608   31.5022  -46.5539 C   0  0  0  0  0  0
  -25.6953   31.9294  -45.2391 C   0  0  0  0  0  0
  -24.4806   31.0564  -44.8789 C   0  0  0  0  0  0
  -23.9022   31.3852  -43.4888 C   0  0  0  0  0  0
  -24.7971   31.0053  -42.3141 C   0  0  0  0  0  0
  -25.7227   30.0710  -42.3565 N   0  0  0  0  0  0
  -26.1900   29.9816  -41.0744 C   0  0  0  0  0  0
  -27.1792   29.1438  -40.5404 C   0  0  0  0  0  0
  -27.4711   29.2155  -39.1759 C   0  0  0  0  0  0
  -28.4872   28.3741  -38.5187 C   0  0  0  0  0  0
  -28.7792   27.0910  -38.8156 C   0  0  0  0  0  0
  -29.8140   26.3440  -38.1404 C   0  0  0  0  0  0
  -30.6132   25.6607  -38.7810 O   0  0  0  0  0  0
  -29.8384   26.4692  -36.8035 N   0  0  0  0  0  0
  -30.8420   25.8018  -36.0855 O   0  0  0  0  0  0
  -26.7739   30.1150  -38.3807 C   0  0  0  0  0  0
  -25.7937   30.9714  -38.8644 C   0  0  0  0  0  0
  -25.5221   30.8930  -40.2290 C   0  0  0  0  0  0
  -24.6693   31.5830  -41.0627 N   0  0  0  0  0  0
  -23.8370   32.7191  -40.6668 C   0  0  0  0  0  0
  -24.4246   34.0866  -41.1167 C   0  0  0  0  0  0
  -25.9620   34.2600  -41.1847 C   0  0  0  0  0  0
  -26.6125   33.9019  -39.9813 O   0  0  0  0  0  0
  -30.3041   35.4348  -46.7224 H   0  0  0  0  0  0
  -29.7775   33.9865  -45.9269 H   0  0  0  0  0  0
  -28.8302   35.4679  -45.7511 H   0  0  0  0  0  0
  -28.3403   35.4400  -48.2213 H   0  0  0  0  0  0
  -29.2505   33.9643  -48.3991 H   0  0  0  0  0  0
  -26.7245   34.2626  -46.7046 H   0  0  0  0  0  0
  -26.7547   33.6325  -48.3283 H   0  0  0  0  0  0
  -28.2124   31.7437  -47.6268 H   0  0  0  0  0  0
  -28.2585   32.3355  -45.9935 H   0  0  0  0  0  0
  -25.6490   31.5562  -47.3781 H   0  0  0  0  0  0
  -26.6447   30.4618  -46.4711 H   0  0  0  0  0  0
  -26.4342   31.8839  -44.4366 H   0  0  0  0  0  0
  -25.3810   32.9723  -45.3032 H   0  0  0  0  0  0
  -23.7057   31.2027  -45.6320 H   0  0  0  0  0  0
  -24.7436   29.9990  -44.9293 H   0  0  0  0  0  0
  -23.6676   32.4489  -43.4671 H   0  0  0  0  0  0
  -22.9427   30.8813  -43.3766 H   0  0  0  0  0  0
  -27.7111   28.4688  -41.1786 H   0  0  0  0  0  0
  -29.0490   28.8672  -37.7368 H   0  0  0  0  0  0
  -28.2385   26.5572  -39.5812 H   0  0  0  0  0  0
  -29.2046   27.0141  -36.2189 H   0  0  0  0  0  0
  -31.4017   26.5096  -35.7546 H   0  0  0  0  0  0
  -27.0127   30.1674  -37.3301 H   0  0  0  0  0  0
  -25.2874   31.6684  -38.2130 H   0  0  0  0  0  0
  -23.7239   32.7022  -39.5810 H   0  0  0  0  0  0
  -22.8352   32.5696  -41.0732 H   0  0  0  0  0  0
  -24.0219   34.8566  -40.4548 H   0  0  0  0  0  0
  -24.0245   34.3327  -42.1000 H   0  0  0  0  0  0
  -26.2160   35.2920  -41.4294 H   0  0  0  0  0  0
  -26.3827   33.6149  -41.9579 H   0  0  0  0  0  0
  -26.0071   34.0689  -39.2373 H   0  0  0  0  0  0
  1  2  1  0  0  0
  1 28  1  0  0  0
  1 29  1  0  0  0
  1 30  1  0  0  0
  2  3  1  0  0  0
  2 31  1  0  0  0
  2 32  1  0  0  0
  3  4  1  0  0  0
  3 33  1  0  0  0
  3 34  1  0  0  0
  4  5  1  0  0  0
  4 35  1  0  0  0
  4 36  1  0  0  0
  5  6  1  0  0  0
  5 37  1  0  0  0
  5 38  1  0  0  0
  6  7  1  0  0  0
  6 39  1  0  0  0
  6 40  1  0  0  0
  7  8  1  0  0  0
  7 41  1  0  0  0
  7 42  1  0  0  0
  8  9  1  0  0  0
  8 43  1  0  0  0
  8 44  1  0  0  0
  9 10  2  0  0  0
  9 23  1  0  0  0
 10 11  1  0  0  0
 11 12  2  0  0  0
 11 22  1  0  0  0
 12 13  1  0  0  0
 12 45  1  0  0  0
 13 14  1  0  0  0
 13 20  2  0  0  0
 14 15  2  0  0  0
 14 46  1  0  0  0
 15 16  1  0  0  0
 15 47  1  0  0  0
 16 17  2  0  0  0
 16 18  1  0  0  0
 18 19  1  0  0  0
 18 48  1  0  0  0
 19 49  1  0  0  0
 20 21  1  0  0  0
 20 50  1  0  0  0
 21 22  2  0  0  0
 21 51  1  0  0  0
 22 23  1  0  0  0
 23 24  1  0  0  0
 24 25  1  0  0  0
 24 52  1  0  0  0
 24 53  1  0  0  0
 25 26  1  0  0  0
 25 54  1  0  0  0
 25 55  1  0  0  0
 26 27  1  0  0  0
 26 56  1  0  0  0
 26 57  1  0  0  0
 27 58  1  0  0  0
M  END
> <s_m_entry_id>
52935

> <s_m_entry_name>
dock_pv.154

> <s_m_Source_Path>
/home/csk/Desktop/cluster/DUD-E-result/hdac8

> <s_m_Source_File>
dock_pv.maegz

> <i_m_Source_File_Index>
154

> <chembl_id>
CHEMBL474151

> <chembl_pref_name>
None

> <i_lp_mmshare_version>
53161

> <i_f3d_flags>
0

> <r_lp_tautomer_probability>
1

> <s_lp_Force_Field>
OPLS_2005

> <r_lp_Energy>
16.000994

> <b_lp_Chiralities_Consistent>
1

> <s_lp_Variant>
CHEMBL3192_lig809-1

> <s_i_glide_gridfile>
glide-grid_3f07

> <i_i_glide_lignum>
863

> <i_i_glide_rotatable_bonds>
15

> <r_i_docking_score>
-7.7940401726423

> <r_i_glide_ligand_efficiency>
-0.288668154542308

> <r_i_glide_ligand_efficiency_sa>
-0.86600446267552

> <r_i_glide_ligand_efficiency_ln>
-1.81432405739647

> <r_i_glide_gscore>
-7.7940401726423

> <r_i_glide_lipo>
-1.34865269918005

> <r_i_glide_hbond>
-0.456

> <r_i_glide_metal>
-2.3

> <r_i_glide_rewards>
-1.06270521593081

> <r_i_glide_evdw>
-32.2234687805176

> <r_i_glide_ecoul>
-16.9075164794922

> <r_i_glide_erotb>
1.6624911025748

> <r_i_glide_esite>
-0.141872449156525

> <r_i_glide_emodel>
-72.5085076159258

> <r_i_glide_energy>
-49.1309852600098

> <r_i_glide_einternal>
10.9422512054443

> <i_i_glide_confnum>
27

> <i_i_glide_posenum>
366

> <r_i_glide_eff_state_penalty>
0

> <s_user_duplicate_titles>
CHEMBL3192_lig809

> <s_m_subgroup_title>
dock_pv

> <s_m_subgroupid>
dock_pv

> <b_m_subgroup_collapsed>
1

$$$$
CHEMBL3192_lig555
                    3D
 Schrodinger Suite 2021-1.
 39 41  0  0  1  0            999 V2000
  -28.4591   30.3481  -40.7810 C   0  0  0  0  0  0
  -29.1722   29.2690  -40.2864 C   0  0  0  0  0  0
  -28.6130   28.4079  -39.3358 C   0  0  0  0  0  0
  -27.3149   28.6808  -38.8856 C   0  0  0  0  0  0
  -27.1617   30.6131  -40.3573 C   0  0  0  0  0  0
  -26.5739   29.7552  -39.4051 C   0  0  0  0  0  0
  -25.1296   30.0101  -38.9905 C   0  0  0  0  0  0
  -24.7753   31.4930  -39.1126 C   0  0  0  0  0  0
  -24.9974   31.8605  -40.5220 N   0  0  0  0  0  0
  -26.4209   31.8383  -40.9109 C   0  0  0  0  0  0
  -29.4130   27.2141  -38.8553 C   0  0  0  0  0  0
  -29.3250   26.8690  -37.5810 N   0  0  0  0  0  0
  -30.2311   26.6556  -39.5810 O   0  0  0  0  0  0
  -30.1713   25.8477  -37.0929 O   0  0  0  0  0  0
  -23.9430   31.9696  -41.3851 C   0  0  0  0  0  0
  -24.1790   32.4846  -42.7311 C   0  0  0  0  0  0
  -22.7944   31.6679  -41.0540 O   0  0  0  0  0  0
  -25.0997   33.4588  -43.1407 C   0  0  0  0  0  0
  -24.9286   33.7139  -44.4981 C   0  0  0  0  0  0
  -23.8549   32.9521  -44.9060 C   0  0  0  0  0  0
  -23.3672   32.2366  -43.8359 N   0  0  0  0  0  0
  -22.2204   31.3397  -43.9226 C   0  0  0  0  0  0
  -28.9206   30.9767  -41.5220 H   0  0  0  0  0  0
  -30.1711   29.1075  -40.6647 H   0  0  0  0  0  0
  -26.8497   28.0346  -38.1558 H   0  0  0  0  0  0
  -24.4479   29.4626  -39.6273 H   0  0  0  0  0  0
  -24.9487   29.6567  -37.9810 H   0  0  0  0  0  0
  -23.7610   31.7369  -38.7891 H   0  0  0  0  0  0
  -25.4068   32.0690  -38.4401 H   0  0  0  0  0  0
  -26.8970   32.7368  -40.5173 H   0  0  0  0  0  0
  -26.5626   31.8435  -41.9902 H   0  0  0  0  0  0
  -28.7308   27.2743  -36.8594 H   0  0  0  0  0  0
  -29.5831   25.0936  -36.9772 H   0  0  0  0  0  0
  -25.8287   33.9486  -42.5115 H   0  0  0  0  0  0
  -25.5012   34.4017  -45.1041 H   0  0  0  0  0  0
  -23.3773   32.8744  -45.8719 H   0  0  0  0  0  0
  -22.5079   30.3477  -43.5810 H   0  0  0  0  0  0
  -21.4070   31.7306  -43.3110 H   0  0  0  0  0  0
  -21.8695   31.2690  -44.9526 H   0  0  0  0  0  0
  1  5  1  0  0  0
  1  2  2  0  0  0
  1 23  1  0  0  0
  2  3  1  0  0  0
  2 24  1  0  0  0
  3  4  2  0  0  0
  3 11  1  0  0  0
  4  6  1  0  0  0
  4 25  1  0  0  0
  5  6  2  0  0  0
  5 10  1  0  0  0
  6  7  1  0  0  0
  7  8  1  0  0  0
  7 26  1  0  0  0
  7 27  1  0  0  0
  8  9  1  0  0  0
  8 28  1  0  0  0
  8 29  1  0  0  0
  9 10  1  0  0  0
  9 15  1  0  0  0
 10 30  1  0  0  0
 10 31  1  0  0  0
 11 12  1  0  0  0
 11 13  2  0  0  0
 12 14  1  0  0  0
 12 32  1  0  0  0
 14 33  1  0  0  0
 15 16  1  0  0  0
 15 17  2  0  0  0
 16 18  2  0  0  0
 16 21  1  0  0  0
 18 19  1  0  0  0
 18 34  1  0  0  0
 19 20  2  0  0  0
 19 35  1  0  0  0
 20 21  1  0  0  0
 20 36  1  0  0  0
 21 22  1  0  0  0
 22 37  1  0  0  0
 22 38  1  0  0  0
 22 39  1  0  0  0
M  END
> <s_m_entry_id>
52936

> <s_m_entry_name>
dock_pv.155

> <s_m_Source_Path>
/home/csk/Desktop/cluster/DUD-E-result/hdac8

> <s_m_Source_File>
dock_pv.maegz

> <i_m_Source_File_Index>
155

> <chembl_id>
CHEMBL2431901

> <chembl_pref_name>
None

> <i_lp_mmshare_version>
53161

> <i_f3d_flags>
0

> <r_lp_tautomer_probability>
1

> <s_lp_Force_Field>
OPLS_2005

> <r_lp_Energy>
43.084062

> <b_lp_Chiralities_Consistent>
1

> <s_lp_Variant>
CHEMBL3192_lig555-1

> <s_i_glide_gridfile>
glide-grid_3f07

> <i_i_glide_lignum>
576

> <i_i_glide_rotatable_bonds>
5

> <r_i_docking_score>
-7.79031501726626

> <r_i_glide_ligand_efficiency>
-0.354105228057557

> <r_i_glide_ligand_efficiency_sa>
-0.992216775185643

> <r_i_glide_ligand_efficiency_ln>
-1.9042371488644

> <r_i_glide_gscore>
-7.79031501726626

> <r_i_glide_lipo>
-1.04779974093549

> <r_i_glide_hbond>
-0.608

> <r_i_glide_metal>
-2.3

> <r_i_glide_rewards>
-1.67465800738028

> <r_i_glide_evdw>
-16.1931495666504

> <r_i_glide_ecoul>
-12.7187662124634

> <r_i_glide_erotb>
0.819894369926508

> <r_i_glide_esite>
-0.262279228674973

> <r_i_glide_emodel>
-45.5786894946888

> <r_i_glide_energy>
-28.9119157791138

> <r_i_glide_einternal>
1.13810765743256

> <i_i_glide_confnum>
100

> <i_i_glide_posenum>
7

> <r_i_glide_eff_state_penalty>
0

> <s_user_duplicate_titles>
CHEMBL3192_lig555

> <s_m_subgroup_title>
dock_pv

> <s_m_subgroupid>
dock_pv

> <b_m_subgroup_collapsed>
1

$$$$
CHEMBL3192_lig627
                    3D
 Schrodinger Suite 2021-1.
 52 54  0  0  1  0            999 V2000
  -26.6909   31.5176  -40.4649 C   0  0  0  0  0  0
  -26.8310   32.6999  -41.4135 C   0  0  0  0  0  0
  -26.3196   32.4410  -42.7594 N   0  0  0  0  0  0
  -25.0192   32.3103  -43.0868 C   0  0  0  0  0  0
  -23.8200   31.2541  -48.5628 N   0  0  0  0  0  0
  -24.6796   31.0787  -49.5810 C   0  0  0  0  0  0
  -26.1514   31.3956  -49.2102 C   0  0  0  0  0  0
  -26.3395   32.4531  -48.0629 C   0  0  0  0  0  0
  -25.3686   32.1192  -46.9103 C   0  0  0  0  0  0
  -25.6418   32.3600  -45.5560 C   0  0  0  0  0  0
  -24.7157   32.0544  -44.5452 C   0  0  0  0  0  0
  -23.4736   31.5234  -44.9155 C   0  0  0  0  0  0
  -23.1764   31.2842  -46.2536 C   0  0  0  0  0  0
  -24.1201   31.5681  -47.2394 C   0  0  0  0  0  0
  -24.1093   32.3839  -42.2609 O   0  0  0  0  0  0
  -27.8130   32.3688  -47.5970 C   0  0  0  0  0  0
  -25.9943   33.8636  -48.5970 C   0  0  0  0  0  0
  -24.3217   30.6488  -50.6741 O   0  0  0  0  0  0
  -27.6734   30.5208  -40.4046 C   0  0  0  0  0  0
  -27.5551   29.4504  -39.5069 C   0  0  0  0  0  0
  -26.4358   29.4009  -38.6724 C   0  0  0  0  0  0
  -25.4637   30.3975  -38.7145 C   0  0  0  0  0  0
  -25.5984   31.4606  -39.5977 C   0  0  0  0  0  0
  -28.6096   28.4186  -39.4572 C   0  0  0  0  0  0
  -28.7318   27.4071  -38.5614 C   0  0  0  0  0  0
  -29.8286   26.4697  -38.6244 C   0  0  0  0  0  0
  -29.9660   25.6690  -37.5566 N   0  0  0  0  0  0
  -30.6130   26.4690  -39.5810 O   0  0  0  0  0  0
  -31.0130   24.7300  -37.5517 O   0  0  0  0  0  0
  -27.8843   32.9680  -41.4909 H   0  0  0  0  0  0
  -26.3385   33.5783  -40.9877 H   0  0  0  0  0  0
  -27.0022   32.2241  -43.4678 H   0  0  0  0  0  0
  -22.8734   30.9930  -48.7928 H   0  0  0  0  0  0
  -26.6720   31.7058  -50.1172 H   0  0  0  0  0  0
  -26.5913   30.4410  -48.9183 H   0  0  0  0  0  0
  -26.5868   32.8094  -45.2937 H   0  0  0  0  0  0
  -22.7268   31.2914  -44.1681 H   0  0  0  0  0  0
  -22.2130   30.8690  -46.5131 H   0  0  0  0  0  0
  -28.4997   32.4690  -48.4390 H   0  0  0  0  0  0
  -28.0324   31.4145  -47.1157 H   0  0  0  0  0  0
  -28.0711   33.1641  -46.8976 H   0  0  0  0  0  0
  -26.6334   34.1373  -49.4373 H   0  0  0  0  0  0
  -26.1340   34.6227  -47.8261 H   0  0  0  0  0  0
  -24.9606   33.9371  -48.9373 H   0  0  0  0  0  0
  -28.5267   30.5789  -41.0652 H   0  0  0  0  0  0
  -26.3018   28.5852  -37.9810 H   0  0  0  0  0  0
  -24.6060   30.3496  -38.0592 H   0  0  0  0  0  0
  -24.8440   32.2367  -39.6098 H   0  0  0  0  0  0
  -29.3486   28.5153  -40.2408 H   0  0  0  0  0  0
  -28.0246   27.2690  -37.7573 H   0  0  0  0  0  0
  -29.3819   25.6208  -36.7330 H   0  0  0  0  0  0
  -30.5553   23.8788  -37.5948 H   0  0  0  0  0  0
  1  2  1  0  0  0
  1 19  2  0  0  0
  1 23  1  0  0  0
  2  3  1  0  0  0
  2 30  1  0  0  0
  2 31  1  0  0  0
  3  4  1  0  0  0
  3 32  1  0  0  0
  4 11  1  0  0  0
  4 15  2  0  0  0
  5  6  1  0  0  0
  5 14  1  0  0  0
  5 33  1  0  0  0
  6  7  1  0  0  0
  6 18  2  0  0  0
  7  8  1  0  0  0
  7 34  1  0  0  0
  7 35  1  0  0  0
  8  9  1  0  0  0
  8 16  1  0  0  0
  8 17  1  0  0  0
  9 10  1  0  0  0
  9 14  2  0  0  0
 10 11  2  0  0  0
 10 36  1  0  0  0
 11 12  1  0  0  0
 12 13  2  0  0  0
 12 37  1  0  0  0
 13 14  1  0  0  0
 13 38  1  0  0  0
 16 39  1  0  0  0
 16 40  1  0  0  0
 16 41  1  0  0  0
 17 42  1  0  0  0
 17 43  1  0  0  0
 17 44  1  0  0  0
 19 20  1  0  0  0
 19 45  1  0  0  0
 20 21  2  0  0  0
 20 24  1  0  0  0
 21 22  1  0  0  0
 21 46  1  0  0  0
 22 23  2  0  0  0
 22 47  1  0  0  0
 23 48  1  0  0  0
 24 25  2  0  0  0
 24 49  1  0  0  0
 25 26  1  0  0  0
 25 50  1  0  0  0
 26 27  1  0  0  0
 26 28  2  0  0  0
 27 29  1  0  0  0
 27 51  1  0  0  0
 29 52  1  0  0  0
M  END
> <s_m_entry_id>
52937

> <s_m_entry_name>
dock_pv.156

> <s_m_Source_Path>
/home/csk/Desktop/cluster/DUD-E-result/hdac8

> <s_m_Source_File>
dock_pv.maegz

> <i_m_Source_File_Index>
156

> <chembl_id>
CHEMBL3309290

> <chembl_pref_name>
None

> <i_lp_mmshare_version>
53161

> <i_f3d_flags>
0

> <r_lp_tautomer_probability>
1

> <s_lp_Force_Field>
OPLS_2005

> <r_lp_Energy>
33.389964

> <b_lp_Chiralities_Consistent>
1

> <s_lp_Variant>
CHEMBL3192_lig627-1

> <s_i_glide_gridfile>
glide-grid_3f07

> <i_i_glide_lignum>
653

> <i_i_glide_rotatable_bonds>
8

> <r_i_docking_score>
-7.78655165017037

> <r_i_glide_ligand_efficiency>
-0.268501781040357

> <r_i_glide_ligand_efficiency_sa>
-0.824922538690988

> <r_i_glide_ligand_efficiency_ln>
-1.78292287797561

> <r_i_glide_gscore>
-7.78655165017037

> <r_i_glide_lipo>
-1.00248799428328

> <r_i_glide_hbond>
-0.314356405596468

> <r_i_glide_metal>
-2.3

> <r_i_glide_rewards>
-0.943174639479733

> <r_i_glide_evdw>
-32.1636581420898

> <r_i_glide_ecoul>
-15.5828895568848

> <r_i_glide_erotb>
0.883404795380261

> <r_i_glide_esite>
-0.164321065553941

> <r_i_glide_emodel>
-75.2155647120007

> <r_i_glide_energy>
-47.7465476989746

> <r_i_glide_einternal>
0.482651561498642

> <i_i_glide_confnum>
74

> <i_i_glide_posenum>
136

> <r_i_glide_eff_state_penalty>
0

> <s_user_duplicate_titles>
CHEMBL3192_lig627

> <s_m_subgroup_title>
dock_pv

> <s_m_subgroupid>
dock_pv

> <b_m_subgroup_collapsed>
1

$$$$
CHEMBL3192_lig640
                    3D
 Schrodinger Suite 2021-1.
 51 53  0  0  1  0            999 V2000
  -29.8221   26.4691  -38.4796 C   0  0  0  0  0  0
  -28.7200   27.5186  -38.2560 C   0  0  0  0  0  0
  -27.9506   27.9353  -39.5296 C   0  0  0  0  0  0
  -28.5992   29.0753  -40.3519 C   0  0  0  0  0  0
  -28.4386   30.4898  -39.7701 C   0  0  0  0  0  0
  -30.4594   26.4691  -39.5410 O   0  0  0  0  0  0
  -30.0784   25.6199  -37.4730 N   0  0  0  0  0  0
  -25.2590   32.0089  -40.3342 N   0  0  0  0  0  0
  -26.5480   31.7952  -40.6406 N   0  0  0  0  0  0
  -26.9936   30.9497  -39.7347 C   0  0  0  0  0  0
  -25.9765   30.6013  -38.8339 C   0  0  0  0  0  0
  -24.8470   31.2687  -39.2591 C   0  0  0  0  0  0
  -24.4675   32.9443  -41.1233 C   0  0  0  0  0  0
  -24.0040   32.4143  -42.4778 C   0  0  0  0  0  0
  -24.9311   32.1786  -43.4955 C   0  0  0  0  0  0
  -24.4980   31.7724  -44.7552 C   0  0  0  0  0  0
  -23.1313   31.6249  -45.0166 C   0  0  0  0  0  0
  -22.2136   31.8046  -43.9801 C   0  0  0  0  0  0
  -22.6444   32.2037  -42.7169 C   0  0  0  0  0  0
  -22.6135   31.2691  -46.2735 N   0  0  0  0  0  0
  -23.1241   31.2690  -47.5839 C   0  0  0  0  0  0
  -22.3941   30.5780  -48.5555 C   0  0  0  0  0  0
  -22.8406   30.5246  -49.8731 C   0  0  0  0  0  0
  -24.0176   31.1792  -50.2261 C   0  0  0  0  0  0
  -24.7402   31.8959  -49.2762 C   0  0  0  0  0  0
  -24.2893   31.9484  -47.9595 C   0  0  0  0  0  0
  -31.0132   24.5965  -37.6875 O   0  0  0  0  0  0
  -29.1350   28.3840  -37.7387 H   0  0  0  0  0  0
  -27.9874   27.0901  -37.5813 H   0  0  0  0  0  0
  -26.9345   28.2114  -39.2575 H   0  0  0  0  0  0
  -27.8011   27.0587  -40.1542 H   0  0  0  0  0  0
  -28.1661   29.0888  -41.3511 H   0  0  0  0  0  0
  -29.6611   28.8692  -40.4855 H   0  0  0  0  0  0
  -29.0373   31.1748  -40.3722 H   0  0  0  0  0  0
  -28.8842   30.5350  -38.7808 H   0  0  0  0  0  0
  -29.6123   25.5578  -36.5772 H   0  0  0  0  0  0
  -26.0588   29.9420  -37.9839 H   0  0  0  0  0  0
  -23.8359   31.3312  -38.8823 H   0  0  0  0  0  0
  -25.0640   33.8455  -41.2754 H   0  0  0  0  0  0
  -23.6174   33.2608  -40.5153 H   0  0  0  0  0  0
  -25.9874   32.3168  -43.3152 H   0  0  0  0  0  0
  -25.2424   31.5611  -45.5040 H   0  0  0  0  0  0
  -21.1563   31.6663  -44.1579 H   0  0  0  0  0  0
  -21.9170   32.3721  -41.9356 H   0  0  0  0  0  0
  -21.6545   30.9453  -46.2165 H   0  0  0  0  0  0
  -21.4770   30.0694  -48.2962 H   0  0  0  0  0  0
  -22.2698   29.9870  -50.6163 H   0  0  0  0  0  0
  -24.3626   31.1525  -51.2489 H   0  0  0  0  0  0
  -25.6374   32.4253  -49.5622 H   0  0  0  0  0  0
  -24.8382   32.5570  -47.2613 H   0  0  0  0  0  0
  -30.4718   23.7943  -37.7277 H   0  0  0  0  0  0
  1  2  1  0  0  0
  1  6  2  0  0  0
  1  7  1  0  0  0
  2  3  1  0  0  0
  2 28  1  0  0  0
  2 29  1  0  0  0
  3  4  1  0  0  0
  3 30  1  0  0  0
  3 31  1  0  0  0
  4  5  1  0  0  0
  4 32  1  0  0  0
  4 33  1  0  0  0
  5 10  1  0  0  0
  5 34  1  0  0  0
  5 35  1  0  0  0
  7 27  1  0  0  0
  7 36  1  0  0  0
  8  9  1  0  0  0
  8 12  1  0  0  0
  8 13  1  0  0  0
  9 10  2  0  0  0
 10 11  1  0  0  0
 11 12  2  0  0  0
 11 37  1  0  0  0
 12 38  1  0  0  0
 13 14  1  0  0  0
 13 39  1  0  0  0
 13 40  1  0  0  0
 14 15  1  0  0  0
 14 19  2  0  0  0
 15 16  2  0  0  0
 15 41  1  0  0  0
 16 17  1  0  0  0
 16 42  1  0  0  0
 17 18  2  0  0  0
 17 20  1  0  0  0
 18 19  1  0  0  0
 18 43  1  0  0  0
 19 44  1  0  0  0
 20 21  1  0  0  0
 20 45  1  0  0  0
 21 22  1  0  0  0
 21 26  2  0  0  0
 22 23  2  0  0  0
 22 46  1  0  0  0
 23 24  1  0  0  0
 23 47  1  0  0  0
 24 25  2  0  0  0
 24 48  1  0  0  0
 25 26  1  0  0  0
 25 49  1  0  0  0
 26 50  1  0  0  0
 27 51  1  0  0  0
M  END
> <s_m_entry_id>
52938

> <s_m_entry_name>
dock_pv.157

> <s_m_Source_Path>
/home/csk/Desktop/cluster/DUD-E-result/hdac8

> <s_m_Source_File>
dock_pv.maegz

> <i_m_Source_File_Index>
157

> <chembl_id>
CHEMBL3335299

> <chembl_pref_name>
None

> <i_lp_mmshare_version>
53161

> <i_f3d_flags>
0

> <r_lp_tautomer_probability>
1

> <s_lp_Force_Field>
OPLS_2005

> <r_lp_Energy>
19.276239

> <b_lp_Chiralities_Consistent>
1

> <s_lp_Variant>
CHEMBL3192_lig640-1

> <s_i_glide_gridfile>
glide-grid_3f07

> <i_i_glide_lignum>
666

> <i_i_glide_rotatable_bonds>
11

> <r_i_docking_score>
-7.78651447846821

> <r_i_glide_ligand_efficiency>
-0.288389425128452

> <r_i_glide_ligand_efficiency_sa>
-0.865168274434873

> <r_i_glide_ligand_efficiency_ln>
-1.81257219986351

> <r_i_glide_gscore>
-7.78651447846821

> <r_i_glide_lipo>
-0.720746753113216

> <r_i_glide_hbond>
-0.576

> <r_i_glide_metal>
-2.3

> <r_i_glide_rewards>
-1.07228539874445

> <r_i_glide_evdw>
-28.8111934661865

> <r_i_glide_ecoul>
-19.5414142608643

> <r_i_glide_erotb>
1.44746676575931

> <r_i_glide_esite>
-0.193177279930888

> <r_i_glide_emodel>
-75.291212685307

> <r_i_glide_energy>
-48.3526077270508

> <r_i_glide_einternal>
4.01477813720703

> <i_i_glide_confnum>
48

> <i_i_glide_posenum>
70

> <r_i_glide_eff_state_penalty>
0

> <s_user_duplicate_titles>
CHEMBL3192_lig640

> <s_m_subgroup_title>
dock_pv

> <s_m_subgroupid>
dock_pv

> <b_m_subgroup_collapsed>
1

$$$$
CHEMBL3192_lig1038
                    3D
 Schrodinger Suite 2021-1.
 47 50  0  0  1  0            999 V2000
  -30.2130   25.3358  -37.2727 O   0  0  0  0  0  0
  -29.4130   26.4691  -37.5225 N   0  0  0  0  0  0
  -29.4130   26.9950  -38.7525 C   0  0  0  0  0  0
  -30.2393   26.6293  -39.5810 O   0  0  0  0  0  0
  -28.4588   28.1329  -39.0372 C   0  0  0  0  0  0
  -27.2479   28.1850  -38.3757 C   0  0  0  0  0  0
  -26.3699   29.2487  -38.5257 C   0  0  0  0  0  0
  -26.6369   30.2796  -39.4034 C   0  0  0  0  0  0
  -25.5931   31.3807  -39.5813 C   0  0  0  0  0  0
  -26.1546   32.6136  -40.3130 C   0  0  0  0  0  0
  -26.9750   32.2082  -41.5423 C   0  0  2  0  0  0
  -28.1753   31.3392  -41.1126 C   0  0  0  0  0  0
  -27.8388   30.2303  -40.1374 C   0  0  0  0  0  0
  -28.7376   29.1648  -39.9429 C   0  0  0  0  0  0
  -26.1237   31.4587  -42.4661 N   0  0  0  0  0  0
  -26.1861   31.5697  -43.8576 C   0  0  0  0  0  0
  -25.3443   30.7444  -44.5224 N   0  0  0  0  0  0
  -25.3177   30.8690  -45.8694 C   0  0  0  0  0  0
  -26.1253   31.7737  -46.5593 C   0  0  0  0  0  0
  -26.9837   32.5852  -45.8006 C   0  0  0  0  0  0
  -27.0106   32.4832  -44.4397 N   0  0  0  0  0  0
  -27.8543   33.6378  -46.4187 C   0  0  0  0  0  0
  -28.2980   34.7416  -45.6711 C   0  0  0  0  0  0
  -29.0790   35.7363  -46.2526 C   0  0  0  0  0  0
  -29.4301   35.6401  -47.5949 C   0  0  0  0  0  0
  -30.4060   36.8663  -48.3173 Cl  0  0  0  0  0  0
  -29.0126   34.5513  -48.3538 C   0  0  0  0  0  0
  -28.2349   33.5559  -47.7673 C   0  0  0  0  0  0
  -29.5818   24.6073  -37.2275 H   0  0  0  0  0  0
  -28.8507   26.7543  -36.7257 H   0  0  0  0  0  0
  -27.0108   27.4049  -37.6693 H   0  0  0  0  0  0
  -25.4381   29.2488  -37.9810 H   0  0  0  0  0  0
  -25.1845   31.6690  -38.6119 H   0  0  0  0  0  0
  -24.7522   30.9735  -40.1444 H   0  0  0  0  0  0
  -26.7785   33.1885  -39.6269 H   0  0  0  0  0  0
  -25.3389   33.2819  -40.5942 H   0  0  0  0  0  0
  -27.3522   33.1020  -42.0416 H   0  0  0  0  0  0
  -28.6130   30.8687  -41.9810 H   0  0  0  0  0  0
  -28.9398   31.9722  -40.6659 H   0  0  0  0  0  0
  -29.6683   29.1616  -40.4925 H   0  0  0  0  0  0
  -25.5786   30.7002  -42.0854 H   0  0  0  0  0  0
  -24.6170   30.2303  -46.3810 H   0  0  0  0  0  0
  -26.0562   31.8536  -47.6331 H   0  0  0  0  0  0
  -28.0247   34.8456  -44.6312 H   0  0  0  0  0  0
  -29.4069   36.5808  -45.6646 H   0  0  0  0  0  0
  -29.3036   34.4695  -49.3905 H   0  0  0  0  0  0
  -27.9434   32.7136  -48.3765 H   0  0  0  0  0  0
  1  2  1  0  0  0
  1 29  1  0  0  0
  2  3  1  0  0  0
  2 30  1  0  0  0
  3  4  2  0  0  0
  3  5  1  0  0  0
  5  6  2  0  0  0
  5 14  1  0  0  0
  6  7  1  0  0  0
  6 31  1  0  0  0
  7  8  2  0  0  0
  7 32  1  0  0  0
  8  9  1  0  0  0
  8 13  1  0  0  0
  9 10  1  0  0  0
  9 33  1  0  0  0
  9 34  1  0  0  0
 10 11  1  0  0  0
 10 35  1  0  0  0
 10 36  1  0  0  0
 11 12  1  0  0  0
 11 15  1  0  0  0
 11 37  1  0  0  0
 12 13  1  0  0  0
 12 38  1  0  0  0
 12 39  1  0  0  0
 13 14  2  0  0  0
 14 40  1  0  0  0
 15 16  1  0  0  0
 15 41  1  0  0  0
 16 17  2  0  0  0
 16 21  1  0  0  0
 17 18  1  0  0  0
 18 19  2  0  0  0
 18 42  1  0  0  0
 19 20  1  0  0  0
 19 43  1  0  0  0
 20 21  2  0  0  0
 20 22  1  0  0  0
 22 23  2  0  0  0
 22 28  1  0  0  0
 23 24  1  0  0  0
 23 44  1  0  0  0
 24 25  2  0  0  0
 24 45  1  0  0  0
 25 26  1  0  0  0
 25 27  1  0  0  0
 27 28  2  0  0  0
 27 46  1  0  0  0
 28 47  1  0  0  0
M  END
> <s_m_entry_id>
52939

> <s_m_entry_name>
dock_pv.158

> <s_m_Source_Path>
/home/csk/Desktop/cluster/DUD-E-result/hdac8

> <s_m_Source_File>
dock_pv.maegz

> <i_m_Source_File_Index>
158

> <chembl_id>
CHEMBL3357479

> <chembl_pref_name>
None

> <i_lp_mmshare_version>
53161

> <i_f3d_flags>
0

> <r_lp_tautomer_probability>
0.999999987636

> <s_lp_Force_Field>
OPLS_2005

> <r_lp_Energy>
21.752627

> <b_lp_Chiralities_Consistent>
1

> <s_lp_Variant>
CHEMBL3192_lig1038-1

> <s_i_glide_gridfile>
glide-grid_3f07

> <i_i_glide_lignum>
1115

> <i_i_glide_rotatable_bonds>
6

> <r_i_docking_score>
-7.78474128501687

> <r_i_glide_ligand_efficiency>
-0.278026474464888

> <r_i_glide_ligand_efficiency_sa>
-0.84425212531181

> <r_i_glide_ligand_efficiency_ln>
-1.79694685851801

> <r_i_glide_gscore>
-7.78474128501687

> <r_i_glide_lipo>
-1.28594006961189

> <r_i_glide_hbond>
-0.603881577271042

> <r_i_glide_metal>
-2.3

> <r_i_glide_rewards>
-0.974688105182146

> <r_i_glide_evdw>
-22.1297950744629

> <r_i_glide_ecoul>
-12.9592084884644

> <r_i_glide_erotb>
0.626935321326681

> <r_i_glide_esite>
-0.196795827285678

> <r_i_glide_emodel>
-52.3819624305486

> <r_i_glide_energy>
-35.0890035629272

> <r_i_glide_einternal>
2.71753478050232

> <i_i_glide_confnum>
56

> <i_i_glide_posenum>
281

> <r_i_glide_eff_state_penalty>
0

> <s_user_duplicate_titles>
CHEMBL3192_lig1038

> <s_m_subgroup_title>
dock_pv

> <s_m_subgroupid>
dock_pv

> <b_m_subgroup_collapsed>
1

$$$$
CHEMBL3192_lig617
                    3D
 Schrodinger Suite 2021-1.
 37 39  0  0  1  0            999 V2000
  -25.5155   31.7267  -39.7102 C   0  0  0  0  0  0
  -26.0741   31.7137  -41.0823 N   0  0  0  0  0  0
  -27.5010   31.3122  -41.1339 C   0  0  0  0  0  0
  -25.4919   30.2687  -39.1940 C   0  0  0  0  0  0
  -26.8354   29.7051  -39.3043 N   0  0  0  0  0  0
  -27.7715   30.1102  -40.2348 C   0  0  0  0  0  0
  -28.8688   29.2690  -40.0898 C   0  0  0  0  0  0
  -28.5960   28.2864  -39.1234 C   0  0  0  0  0  0
  -27.3188   28.5805  -38.6851 C   0  0  0  0  0  0
  -25.3500   31.7347  -42.2444 C   0  0  0  0  0  0
  -25.8564   31.4419  -43.3315 O   0  0  0  0  0  0
  -29.4130   27.1481  -38.7810 C   0  0  0  0  0  0
  -29.4130   26.7761  -37.5011 N   0  0  0  0  0  0
  -30.2130   26.6486  -39.5810 O   0  0  0  0  0  0
  -30.2234   25.6907  -37.1165 O   0  0  0  0  0  0
  -23.9391   32.1027  -42.2175 C   0  0  0  0  0  0
  -23.2943   33.0772  -41.4431 C   0  0  0  0  0  0
  -21.9487   33.1264  -41.7958 C   0  0  0  0  0  0
  -21.7854   32.2521  -42.8487 C   0  0  0  0  0  0
  -22.9951   31.6690  -43.1472 N   0  0  0  0  0  0
  -23.1773   30.7105  -44.2339 C   0  0  0  0  0  0
  -26.2104   32.3098  -39.1027 H   0  0  0  0  0  0
  -24.5608   32.2231  -39.5810 H   0  0  0  0  0  0
  -27.8144   31.0396  -42.1417 H   0  0  0  0  0  0
  -28.1407   32.1603  -40.8925 H   0  0  0  0  0  0
  -25.1493   30.2136  -38.1608 H   0  0  0  0  0  0
  -24.8235   29.6690  -39.8109 H   0  0  0  0  0  0
  -29.7756   29.3423  -40.6723 H   0  0  0  0  0  0
  -26.6923   28.0690  -37.9810 H   0  0  0  0  0  0
  -29.0130   27.2690  -36.7058 H   0  0  0  0  0  0
  -29.5999   24.9639  -37.0121 H   0  0  0  0  0  0
  -23.7433   33.7057  -40.6859 H   0  0  0  0  0  0
  -21.1910   33.7570  -41.3522 H   0  0  0  0  0  0
  -20.9090   32.0114  -43.4336 H   0  0  0  0  0  0
  -22.2130   30.3263  -44.5650 H   0  0  0  0  0  0
  -23.8087   29.8839  -43.9113 H   0  0  0  0  0  0
  -23.6510   31.2202  -45.0731 H   0  0  0  0  0  0
  1  2  1  0  0  0
  1  4  1  0  0  0
  1 22  1  0  0  0
  1 23  1  0  0  0
  2  3  1  0  0  0
  2 10  1  0  0  0
  3  6  1  0  0  0
  3 24  1  0  0  0
  3 25  1  0  0  0
  4  5  1  0  0  0
  4 26  1  0  0  0
  4 27  1  0  0  0
  5  6  1  0  0  0
  5  9  1  0  0  0
  6  7  2  0  0  0
  7  8  1  0  0  0
  7 28  1  0  0  0
  8  9  2  0  0  0
  8 12  1  0  0  0
  9 29  1  0  0  0
 10 11  2  0  0  0
 10 16  1  0  0  0
 12 13  1  0  0  0
 12 14  2  0  0  0
 13 15  1  0  0  0
 13 30  1  0  0  0
 15 31  1  0  0  0
 16 17  2  0  0  0
 16 20  1  0  0  0
 17 18  1  0  0  0
 17 32  1  0  0  0
 18 19  2  0  0  0
 18 33  1  0  0  0
 19 20  1  0  0  0
 19 34  1  0  0  0
 20 21  1  0  0  0
 21 35  1  0  0  0
 21 36  1  0  0  0
 21 37  1  0  0  0
M  END
> <s_m_entry_id>
52940

> <s_m_entry_name>
dock_pv.159

> <s_m_Source_Path>
/home/csk/Desktop/cluster/DUD-E-result/hdac8

> <s_m_Source_File>
dock_pv.maegz

> <i_m_Source_File_Index>
159

> <chembl_id>
CHEMBL3353053

> <chembl_pref_name>
None

> <i_lp_mmshare_version>
53161

> <i_f3d_flags>
0

> <r_lp_tautomer_probability>
1

> <s_lp_Force_Field>
OPLS_2005

> <r_lp_Energy>
34.97514

> <b_lp_Chiralities_Consistent>
1

> <s_lp_Variant>
CHEMBL3192_lig617-1

> <s_i_glide_gridfile>
glide-grid_3f07

> <i_i_glide_lignum>
643

> <i_i_glide_rotatable_bonds>
5

> <r_i_docking_score>
-7.78346233908931

> <r_i_glide_ligand_efficiency>
-0.370641063766158

> <r_i_glide_ligand_efficiency_sa>
-1.02257059054632

> <r_i_glide_ligand_efficiency_ln>
-1.92444533537326

> <r_i_glide_gscore>
-7.78346233908931

> <r_i_glide_lipo>
-0.780330536204201

> <r_i_glide_hbond>
-0.608

> <r_i_glide_metal>
-2.3

> <r_i_glide_rewards>
-1.47413273698769

> <r_i_glide_evdw>
-21.5335350036621

> <r_i_glide_ecoul>
-14.6464776992798

> <r_i_glide_erotb>
0.875405383448852

> <r_i_glide_esite>
-0.222756044271196

> <r_i_glide_emodel>
-55.7552639543478

> <r_i_glide_energy>
-36.1800127029419

> <r_i_glide_einternal>
6.39539337158203

> <i_i_glide_confnum>
23

> <i_i_glide_posenum>
375

> <r_i_glide_eff_state_penalty>
0

> <s_user_duplicate_titles>
CHEMBL3192_lig617

> <s_m_subgroup_title>
dock_pv

> <s_m_subgroupid>
dock_pv

> <b_m_subgroup_collapsed>
1

$$$$
CHEMBL3192_lig68
                    3D
 Schrodinger Suite 2021-1.
 28 29  0  0  1  0            999 V2000
  -28.6054   30.4777  -40.3804 C   0  0  0  0  0  0
  -29.2232   29.2709  -40.0750 C   0  0  0  0  0  0
  -28.6428   28.3585  -39.1810 C   0  0  0  0  0  0
  -27.3710   28.6548  -38.6706 C   0  0  0  0  0  0
  -26.7083   29.8391  -39.0231 C   0  0  0  0  0  0
  -27.3673   30.7755  -39.8274 C   0  0  0  0  0  0
  -29.4130   27.1157  -38.7841 C   0  0  0  0  0  0
  -29.4130   26.7678  -37.4966 N   0  0  0  0  0  0
  -30.1846   26.5632  -39.5810 O   0  0  0  0  0  0
  -30.2130   25.6765  -37.0988 O   0  0  0  0  0  0
  -25.4491   30.0691  -38.5096 O   0  0  0  0  0  0
  -24.4029   30.6113  -39.2419 C   0  0  0  0  0  0
  -23.2275   30.8690  -38.5357 C   0  0  0  0  0  0
  -22.1056   31.3832  -39.1810 C   0  0  0  0  0  0
  -22.1618   31.6690  -40.5410 C   0  0  0  0  0  0
  -23.3222   31.4161  -41.2655 C   0  0  0  0  0  0
  -24.4300   30.8690  -40.6246 C   0  0  0  0  0  0
  -29.0872   31.1820  -41.0407 H   0  0  0  0  0  0
  -30.1925   29.0792  -40.5114 H   0  0  0  0  0  0
  -26.8827   27.9683  -37.9950 H   0  0  0  0  0  0
  -26.9034   31.7263  -40.0460 H   0  0  0  0  0  0
  -29.0130   27.2649  -36.7056 H   0  0  0  0  0  0
  -29.5808   24.9616  -36.9671 H   0  0  0  0  0  0
  -23.1850   30.6686  -37.4759 H   0  0  0  0  0  0
  -21.2069   31.5882  -38.6181 H   0  0  0  0  0  0
  -21.2979   32.0875  -41.0361 H   0  0  0  0  0  0
  -23.3549   31.6245  -42.3246 H   0  0  0  0  0  0
  -25.2902   30.6342  -41.2288 H   0  0  0  0  0  0
  1  6  1  0  0  0
  1  2  2  0  0  0
  1 18  1  0  0  0
  2  3  1  0  0  0
  2 19  1  0  0  0
  3  7  1  0  0  0
  3  4  2  0  0  0
  4  5  1  0  0  0
  4 20  1  0  0  0
  5 11  1  0  0  0
  5  6  2  0  0  0
  6 21  1  0  0  0
  7  9  2  0  0  0
  7  8  1  0  0  0
  8 10  1  0  0  0
  8 22  1  0  0  0
 10 23  1  0  0  0
 11 12  1  0  0  0
 12 13  2  0  0  0
 12 17  1  0  0  0
 13 14  1  0  0  0
 13 24  1  0  0  0
 14 15  2  0  0  0
 14 25  1  0  0  0
 15 16  1  0  0  0
 15 26  1  0  0  0
 16 17  2  0  0  0
 16 27  1  0  0  0
 17 28  1  0  0  0
M  END
> <s_m_entry_id>
52941

> <s_m_entry_name>
dock_pv.160

> <s_m_Source_Path>
/home/csk/Desktop/cluster/DUD-E-result/hdac8

> <s_m_Source_File>
dock_pv.maegz

> <i_m_Source_File_Index>
160

> <chembl_id>
CHEMBL245741

> <chembl_pref_name>
None

> <i_lp_mmshare_version>
53161

> <i_f3d_flags>
0

> <r_lp_tautomer_probability>
1

> <s_lp_Force_Field>
OPLS_2005

> <r_lp_Energy>
23.79324

> <b_lp_Chiralities_Consistent>
1

> <s_lp_Variant>
CHEMBL3192_lig68-1

> <s_i_glide_gridfile>
glide-grid_3f07

> <i_i_glide_lignum>
70

> <i_i_glide_rotatable_bonds>
5

> <r_i_docking_score>
-7.78256397272322

> <r_i_glide_ligand_efficiency>
-0.457797880748425

> <r_i_glide_ligand_efficiency_sa>
-1.17712726189909

> <r_i_glide_ligand_efficiency_ln>
-2.03029763130478

> <r_i_glide_gscore>
-7.78256397272322

> <r_i_glide_lipo>
-1.27271277107047

> <r_i_glide_hbond>
-0.608

> <r_i_glide_metal>
-2.3

> <r_i_glide_rewards>
-2.08218665084906

> <r_i_glide_evdw>
-15.8953399658203

> <r_i_glide_ecoul>
-12.1561622619629

> <r_i_glide_erotb>
1.29852678678176

> <r_i_glide_esite>
-0.2

> <r_i_glide_emodel>
-42.5577296911004

> <r_i_glide_energy>
-28.0515022277832

> <r_i_glide_einternal>
5.2801718711853

> <i_i_glide_confnum>
14

> <i_i_glide_posenum>
304

> <r_i_glide_eff_state_penalty>
0

> <s_user_duplicate_titles>
CHEMBL3192_lig68

> <s_m_subgroup_title>
dock_pv

> <s_m_subgroupid>
dock_pv

> <b_m_subgroup_collapsed>
1

$$$$
CHEMBL3192_lig80
                    3D
 Schrodinger Suite 2021-1.
 53 55  0  0  1  0            999 V2000
  -26.9168   31.4837  -47.9054 C   0  0  0  0  0  0
  -25.6719   31.2687  -48.4924 C   0  0  0  0  0  0
  -24.4816   31.4894  -47.7971 C   0  0  0  0  0  0
  -27.0276   31.9536  -46.5974 C   0  0  0  0  0  0
  -25.8555   32.2111  -45.8704 C   0  0  0  0  0  0
  -24.5948   31.9576  -46.4834 C   0  0  0  0  0  0
  -23.6358   32.2693  -45.5432 N   0  0  0  0  0  0
  -24.2058   32.7457  -44.3852 C   0  0  0  0  0  0
  -25.5789   32.7157  -44.5610 C   0  0  0  0  0  0
  -23.3224   33.1895  -43.2319 C   0  0  0  0  0  0
  -24.0129   34.0594  -42.1528 C   0  0  0  0  0  0
  -25.1529   33.4332  -41.4621 N   0  0  1  0  0  0
  -24.7033   32.3147  -40.6072 C   0  0  0  0  0  0
  -25.8516   34.4959  -40.7085 C   0  0  0  0  0  0
  -27.1382   34.0330  -39.9909 C   0  0  0  0  0  0
  -27.8129   35.1278  -39.4072 O   0  0  0  0  0  0
  -25.7767   31.2719  -40.2888 C   0  0  0  0  0  0
  -25.6645   30.5179  -39.1190 C   0  0  0  0  0  0
  -26.6087   29.5371  -38.8287 C   0  0  0  0  0  0
  -27.6671   29.2867  -39.7056 C   0  0  0  0  0  0
  -27.7552   30.0210  -40.8892 C   0  0  0  0  0  0
  -26.8003   30.9832  -41.1959 C   0  0  0  0  0  0
  -28.6946   28.2625  -39.4393 C   0  0  0  0  0  0
  -28.7612   27.4311  -38.3767 C   0  0  0  0  0  0
  -29.8211   26.4652  -38.2272 C   0  0  0  0  0  0
  -30.0226   26.0686  -36.9615 N   0  0  0  0  0  0
  -30.5015   26.0691  -39.1809 O   0  0  0  0  0  0
  -31.0131   25.1028  -36.7176 O   0  0  0  0  0  0
  -27.8124   31.2865  -48.4769 H   0  0  0  0  0  0
  -25.6308   30.9172  -49.5131 H   0  0  0  0  0  0
  -23.5213   31.3120  -48.2580 H   0  0  0  0  0  0
  -27.9982   32.1274  -46.1570 H   0  0  0  0  0  0
  -22.6354   32.1994  -45.6552 H   0  0  0  0  0  0
  -26.2973   33.0339  -43.8212 H   0  0  0  0  0  0
  -22.5316   33.8149  -43.6481 H   0  0  0  0  0  0
  -22.7615   32.3700  -42.7859 H   0  0  0  0  0  0
  -24.3371   34.9776  -42.6472 H   0  0  0  0  0  0
  -23.2688   34.3803  -41.4201 H   0  0  0  0  0  0
  -24.2123   32.6762  -39.7007 H   0  0  0  0  0  0
  -23.9416   31.7359  -41.1257 H   0  0  0  0  0  0
  -25.1389   34.8870  -39.9809 H   0  0  0  0  0  0
  -26.1271   35.2659  -41.4326 H   0  0  0  0  0  0
  -27.8123   33.5323  -40.6863 H   0  0  0  0  0  0
  -26.9056   33.3398  -39.1855 H   0  0  0  0  0  0
  -27.2350   35.4991  -38.7316 H   0  0  0  0  0  0
  -24.8520   30.6986  -38.4301 H   0  0  0  0  0  0
  -26.5008   28.9653  -37.9239 H   0  0  0  0  0  0
  -28.5602   29.8405  -41.5844 H   0  0  0  0  0  0
  -26.8723   31.5245  -42.1279 H   0  0  0  0  0  0
  -29.4648   28.2018  -40.1936 H   0  0  0  0  0  0
  -28.0279   27.4598  -37.5858 H   0  0  0  0  0  0
  -29.5082   26.3452  -36.1342 H   0  0  0  0  0  0
  -30.5136   24.2891  -36.5956 H   0  0  0  0  0  0
  1  2  2  0  0  0
  1  4  1  0  0  0
  1 29  1  0  0  0
  2  3  1  0  0  0
  2 30  1  0  0  0
  3  6  2  0  0  0
  3 31  1  0  0  0
  4  5  2  0  0  0
  4 32  1  0  0  0
  5  9  1  0  0  0
  5  6  1  0  0  0
  6  7  1  0  0  0
  7  8  1  0  0  0
  7 33  1  0  0  0
  8  9  2  0  0  0
  8 10  1  0  0  0
  9 34  1  0  0  0
 10 11  1  0  0  0
 10 35  1  0  0  0
 10 36  1  0  0  0
 11 12  1  0  0  0
 11 37  1  0  0  0
 11 38  1  0  0  0
 12 14  1  0  0  0
 12 13  1  0  0  0
 13 17  1  0  0  0
 13 39  1  0  0  0
 13 40  1  0  0  0
 14 15  1  0  0  0
 14 41  1  0  0  0
 14 42  1  0  0  0
 15 16  1  0  0  0
 15 43  1  0  0  0
 15 44  1  0  0  0
 16 45  1  0  0  0
 17 18  2  0  0  0
 17 22  1  0  0  0
 18 19  1  0  0  0
 18 46  1  0  0  0
 19 20  2  0  0  0
 19 47  1  0  0  0
 20 21  1  0  0  0
 20 23  1  0  0  0
 21 22  2  0  0  0
 21 48  1  0  0  0
 22 49  1  0  0  0
 23 24  2  0  0  0
 23 50  1  0  0  0
 24 25  1  0  0  0
 24 51  1  0  0  0
 25 26  1  0  0  0
 25 27  2  0  0  0
 26 28  1  0  0  0
 26 52  1  0  0  0
 28 53  1  0  0  0
M  END
> <s_m_entry_id>
52942

> <s_m_entry_name>
dock_pv.161

> <s_m_Source_Path>
/home/csk/Desktop/cluster/DUD-E-result/hdac8

> <s_m_Source_File>
dock_pv.maegz

> <i_m_Source_File_Index>
161

> <chembl_id>
CHEMBL403323

> <chembl_pref_name>
None

> <i_lp_mmshare_version>
53161

> <i_f3d_flags>
0

> <r_lp_tautomer_probability>
1

> <s_lp_Force_Field>
OPLS_2005

> <r_lp_Energy>
29.197895

> <b_lp_Chiralities_Consistent>
1

> <s_lp_Variant>
CHEMBL3192_lig80-1

> <s_i_glide_gridfile>
glide-grid_3f07

> <i_i_glide_lignum>
83

> <i_i_glide_rotatable_bonds>
12

> <r_i_docking_score>
-7.78021048528173

> <r_i_glide_ligand_efficiency>
-0.277864660188633

> <r_i_glide_ligand_efficiency_sa>
-0.843760761865588

> <r_i_glide_ligand_efficiency_ln>
-1.79590101690907

> <r_i_glide_gscore>
-7.78021048528173

> <r_i_glide_lipo>
-1.17571848997013

> <r_i_glide_hbond>
-0.384792144398556

> <r_i_glide_metal>
-2.3

> <r_i_glide_rewards>
-1.09686101728616

> <r_i_glide_evdw>
-33.8162727355957

> <r_i_glide_ecoul>
-14.9602346420288

> <r_i_glide_erotb>
1.21200999945722

> <r_i_glide_esite>
-0.1

> <r_i_glide_emodel>
-75.4371163973284

> <r_i_glide_energy>
-48.7765073776245

> <r_i_glide_einternal>
7.2973837852478

> <i_i_glide_confnum>
19

> <i_i_glide_posenum>
35

> <r_i_glide_eff_state_penalty>
0

> <s_user_duplicate_titles>
CHEMBL3192_lig80,439264

> <s_m_subgroup_title>
dock_pv

> <s_m_subgroupid>
dock_pv

> <b_m_subgroup_collapsed>
1

$$$$
CHEMBL3192_lig1033
                    3D
 Schrodinger Suite 2021-1.
 40 42  0  0  1  0            999 V2000
  -30.2130   25.3746  -37.2798 O   0  0  0  0  0  0
  -29.4130   26.5087  -37.5245 N   0  0  0  0  0  0
  -29.4130   27.0410  -38.7511 C   0  0  0  0  0  0
  -30.2407   26.6833  -39.5810 O   0  0  0  0  0  0
  -28.4441   28.1683  -39.0363 C   0  0  0  0  0  0
  -27.2349   28.2198  -38.3693 C   0  0  0  0  0  0
  -26.3402   29.2690  -38.5366 C   0  0  0  0  0  0
  -26.5895   30.2859  -39.4388 C   0  0  0  0  0  0
  -25.5273   31.3650  -39.6564 C   0  0  0  0  0  0
  -26.0818   32.6035  -40.3810 C   0  0  0  0  0  0
  -26.9406   32.2124  -41.5901 C   0  0  2  0  0  0
  -28.1380   31.3486  -41.1374 C   0  0  0  0  0  0
  -27.7974   30.2434  -40.1627 C   0  0  0  0  0  0
  -28.7091   29.1923  -39.9534 C   0  0  0  0  0  0
  -26.1265   31.4854  -42.5692 N   0  0  0  0  0  0
  -26.1975   31.6947  -43.9538 C   0  0  0  0  0  0
  -25.3965   30.8915  -44.6994 N   0  0  0  0  0  0
  -25.4186   31.0864  -46.0426 C   0  0  0  0  0  0
  -26.2356   32.0387  -46.6522 C   0  0  0  0  0  0
  -27.0342   32.8222  -45.8100 C   0  0  0  0  0  0
  -27.0132   32.6630  -44.4569 N   0  0  0  0  0  0
  -27.9645   33.9101  -46.3503 C   0  0  0  0  0  0
  -29.2224   33.6690  -45.9811 F   0  0  0  0  0  0
  -27.5999   35.0982  -45.8660 F   0  0  0  0  0  0
  -27.9317   33.9764  -47.6830 F   0  0  0  0  0  0
  -29.5816   24.6464  -37.2318 H   0  0  0  0  0  0
  -28.8452   26.7859  -36.7284 H   0  0  0  0  0  0
  -27.0109   27.4491  -37.6486 H   0  0  0  0  0  0
  -25.4141   29.2689  -37.9810 H   0  0  0  0  0  0
  -25.0858   31.6667  -38.7049 H   0  0  0  0  0  0
  -24.7124   30.9353  -40.2404 H   0  0  0  0  0  0
  -26.6783   33.1926  -39.6825 H   0  0  0  0  0  0
  -25.2606   33.2555  -40.6837 H   0  0  0  0  0  0
  -27.3326   33.1203  -42.0507 H   0  0  0  0  0  0
  -28.6130   30.8690  -41.9810 H   0  0  0  0  0  0
  -28.8839   31.9913  -40.6730 H   0  0  0  0  0  0
  -29.6410   29.1945  -40.5011 H   0  0  0  0  0  0
  -25.5886   30.6986  -42.2384 H   0  0  0  0  0  0
  -24.7591   30.4690  -46.6316 H   0  0  0  0  0  0
  -26.2374   32.1672  -47.7250 H   0  0  0  0  0  0
  1  2  1  0  0  0
  1 26  1  0  0  0
  2  3  1  0  0  0
  2 27  1  0  0  0
  3  4  2  0  0  0
  3  5  1  0  0  0
  5  6  2  0  0  0
  5 14  1  0  0  0
  6  7  1  0  0  0
  6 28  1  0  0  0
  7  8  2  0  0  0
  7 29  1  0  0  0
  8  9  1  0  0  0
  8 13  1  0  0  0
  9 10  1  0  0  0
  9 30  1  0  0  0
  9 31  1  0  0  0
 10 11  1  0  0  0
 10 32  1  0  0  0
 10 33  1  0  0  0
 11 12  1  0  0  0
 11 15  1  0  0  0
 11 34  1  0  0  0
 12 13  1  0  0  0
 12 35  1  0  0  0
 12 36  1  0  0  0
 13 14  2  0  0  0
 14 37  1  0  0  0
 15 16  1  0  0  0
 15 38  1  0  0  0
 16 17  2  0  0  0
 16 21  1  0  0  0
 17 18  1  0  0  0
 18 19  2  0  0  0
 18 39  1  0  0  0
 19 20  1  0  0  0
 19 40  1  0  0  0
 20 21  2  0  0  0
 20 22  1  0  0  0
 22 23  1  0  0  0
 22 24  1  0  0  0
 22 25  1  0  0  0
M  END
> <s_m_entry_id>
52943

> <s_m_entry_name>
dock_pv.162

> <s_m_Source_Path>
/home/csk/Desktop/cluster/DUD-E-result/hdac8

> <s_m_Source_File>
dock_pv.maegz

> <i_m_Source_File_Index>
162

> <chembl_id>
CHEMBL3694286

> <chembl_pref_name>
None

> <i_lp_mmshare_version>
53161

> <i_f3d_flags>
0

> <r_lp_tautomer_probability>
0.999999987636

> <s_lp_Force_Field>
OPLS_2005

> <r_lp_Energy>
25.529513

> <b_lp_Chiralities_Consistent>
1

> <s_lp_Variant>
CHEMBL3192_lig1033-1

> <s_i_glide_gridfile>
glide-grid_3f07

> <i_i_glide_lignum>
1105

> <i_i_glide_rotatable_bonds>
6

> <r_i_docking_score>
-7.77580001353225

> <r_i_glide_ligand_efficiency>
-0.31103200054129

> <r_i_glide_ligand_efficiency_sa>
-0.90946308575875

> <r_i_glide_ligand_efficiency_ln>
-1.84309762512983

> <r_i_glide_gscore>
-7.77580001353225

> <r_i_glide_lipo>
-1.16080823688132

> <r_i_glide_hbond>
-0.606198318025177

> <r_i_glide_metal>
-2.3

> <r_i_glide_rewards>
-1.25874207683462

> <r_i_glide_evdw>
-19.0916900634766

> <r_i_glide_ecoul>
-12.6499519348145

> <r_i_glide_erotb>
0.614982112296069

> <r_i_glide_esite>
-0.212956200691212

> <r_i_glide_emodel>
-48.296699871979

> <r_i_glide_energy>
-31.741641998291

> <r_i_glide_einternal>
1.76003658771515

> <i_i_glide_confnum>
28

> <i_i_glide_posenum>
180

> <r_i_glide_eff_state_penalty>
0

> <s_user_duplicate_titles>
CHEMBL3192_lig1033

> <s_m_subgroup_title>
dock_pv

> <s_m_subgroupid>
dock_pv

> <b_m_subgroup_collapsed>
1

$$$$
CHEMBL3192_lig1060
                    3D
 Schrodinger Suite 2021-1.
 43 46  0  0  1  0            999 V2000
  -30.6130   24.8690  -38.2094 O   0  0  0  0  0  0
  -29.7307   25.9600  -38.1198 N   0  0  0  0  0  0
  -29.7490   26.8690  -39.1041 C   0  0  0  0  0  0
  -30.6130   26.8690  -39.9810 O   0  0  0  0  0  0
  -28.7465   28.0046  -39.0960 C   0  0  0  0  0  0
  -27.5418   27.8987  -38.4158 C   0  0  0  0  0  0
  -26.6120   28.9240  -38.4774 C   0  0  0  0  0  0
  -26.8159   30.0790  -39.2128 C   0  0  0  0  0  0
  -25.7243   31.1530  -39.2417 C   0  0  0  0  0  0
  -25.8359   32.0698  -40.4698 C   0  0  0  0  0  0
  -27.2770   32.5865  -40.5457 C   0  0  2  0  0  0
  -28.2860   31.4362  -40.7810 C   0  0  0  0  0  0
  -28.0369   30.2222  -39.8962 C   0  0  0  0  0  0
  -28.9815   29.1867  -39.8249 C   0  0  0  0  0  0
  -27.4218   33.7110  -41.4752 N   0  0  0  0  0  0
  -27.2659   33.6815  -42.8686 C   0  0  0  0  0  0
  -27.5058   34.8710  -43.4712 N   0  0  0  0  0  0
  -27.4596   34.8826  -44.8234 C   0  0  0  0  0  0
  -27.1776   33.7400  -45.6020 C   0  0  0  0  0  0
  -27.1492   33.7245  -47.0168 C   0  0  0  0  0  0
  -26.8592   32.5386  -47.6868 C   0  0  0  0  0  0
  -26.8329   32.5209  -49.0382 F   0  0  0  0  0  0
  -26.5914   31.3710  -46.9770 C   0  0  0  0  0  0
  -26.6130   31.3588  -45.5820 C   0  0  0  0  0  0
  -26.9123   32.5443  -44.8698 C   0  0  0  0  0  0
  -26.9533   32.5196  -43.5059 N   0  0  0  0  0  0
  -30.0363   24.0916  -38.1371 H   0  0  0  0  0  0
  -29.1179   25.9232  -37.3155 H   0  0  0  0  0  0
  -27.2934   27.0125  -37.8589 H   0  0  0  0  0  0
  -25.6631   28.8202  -37.9810 H   0  0  0  0  0  0
  -25.8130   31.7493  -38.3330 H   0  0  0  0  0  0
  -24.7324   30.6991  -39.2087 H   0  0  0  0  0  0
  -25.1256   32.8942  -40.3814 H   0  0  0  0  0  0
  -25.5700   31.5188  -41.3730 H   0  0  0  0  0  0
  -27.4817   33.0428  -39.5810 H   0  0  0  0  0  0
  -28.1964   31.0680  -41.8012 H   0  0  0  0  0  0
  -29.3126   31.7785  -40.6729 H   0  0  0  0  0  0
  -29.8977   29.3009  -40.3863 H   0  0  0  0  0  0
  -27.4487   34.6362  -41.0726 H   0  0  0  0  0  0
  -27.6627   35.8275  -45.3068 H   0  0  0  0  0  0
  -27.3538   34.6282  -47.5723 H   0  0  0  0  0  0
  -26.3656   30.4690  -47.5231 H   0  0  0  0  0  0
  -26.4111   30.4491  -45.0353 H   0  0  0  0  0  0
  1  2  1  0  0  0
  1 27  1  0  0  0
  2  3  1  0  0  0
  2 28  1  0  0  0
  3  4  2  0  0  0
  3  5  1  0  0  0
  5  6  2  0  0  0
  5 14  1  0  0  0
  6  7  1  0  0  0
  6 29  1  0  0  0
  7  8  2  0  0  0
  7 30  1  0  0  0
  8  9  1  0  0  0
  8 13  1  0  0  0
  9 10  1  0  0  0
  9 31  1  0  0  0
  9 32  1  0  0  0
 10 11  1  0  0  0
 10 33  1  0  0  0
 10 34  1  0  0  0
 11 12  1  0  0  0
 11 15  1  0  0  0
 11 35  1  0  0  0
 12 13  1  0  0  0
 12 36  1  0  0  0
 12 37  1  0  0  0
 13 14  2  0  0  0
 14 38  1  0  0  0
 15 16  1  0  0  0
 15 39  1  0  0  0
 16 17  2  0  0  0
 16 26  1  0  0  0
 17 18  1  0  0  0
 18 19  2  0  0  0
 18 40  1  0  0  0
 19 20  1  0  0  0
 19 25  1  0  0  0
 20 21  2  0  0  0
 20 41  1  0  0  0
 21 22  1  0  0  0
 21 23  1  0  0  0
 23 24  2  0  0  0
 23 42  1  0  0  0
 24 25  1  0  0  0
 24 43  1  0  0  0
 25 26  2  0  0  0
M  END
> <s_m_entry_id>
52944

> <s_m_entry_name>
dock_pv.163

> <s_m_Source_Path>
/home/csk/Desktop/cluster/DUD-E-result/hdac8

> <s_m_Source_File>
dock_pv.maegz

> <i_m_Source_File_Index>
163

> <chembl_id>
CHEMBL3694308

> <chembl_pref_name>
None

> <i_lp_mmshare_version>
53161

> <i_f3d_flags>
0

> <r_lp_tautomer_probability>
1

> <s_lp_Force_Field>
OPLS_2005

> <r_lp_Energy>
17.33052

> <b_lp_Chiralities_Consistent>
1

> <s_lp_Variant>
CHEMBL3192_lig1060-1

> <s_i_glide_gridfile>
glide-grid_3f07

> <i_i_glide_lignum>
1159

> <i_i_glide_rotatable_bonds>
5

> <r_i_docking_score>
-7.76941387717242

> <r_i_glide_ligand_efficiency>
-0.298823610660478

> <r_i_glide_ligand_efficiency_sa>
-0.885263770767535

> <r_i_glide_ligand_efficiency_ln>
-1.82462135552767

> <r_i_glide_gscore>
-7.76941387717242

> <r_i_glide_lipo>
-1.1771683661587

> <r_i_glide_hbond>
-0.304

> <r_i_glide_metal>
-2.3

> <r_i_glide_rewards>
-1.31171904355835

> <r_i_glide_evdw>
-16.3449249267578

> <r_i_glide_ecoul>
-14.8265562057495

> <r_i_glide_erotb>
0.614823237250891

> <r_i_glide_esite>
-0.250120027505939

> <r_i_glide_emodel>
-46.2456887389259

> <r_i_glide_energy>
-31.1714811325073

> <r_i_glide_einternal>
3.71516442298889

> <i_i_glide_confnum>
9

> <i_i_glide_posenum>
82

> <r_i_glide_eff_state_penalty>
0

> <s_user_duplicate_titles>
CHEMBL3192_lig1060

> <s_m_subgroup_title>
dock_pv

> <s_m_subgroupid>
dock_pv

> <b_m_subgroup_collapsed>
1

$$$$
CHEMBL3192_lig1050
                    3D
 Schrodinger Suite 2021-1.
 49 52  0  0  1  0            999 V2000
  -22.3481   30.6303  -48.8266 C   0  0  0  0  0  0
  -23.4047   31.2510  -47.9343 C   0  0  0  0  0  0
  -23.1672   31.4800  -46.5789 C   0  0  0  0  0  0
  -24.1797   32.0674  -45.8197 C   0  0  0  0  0  0
  -25.4029   32.4267  -46.4129 C   0  0  0  0  0  0
  -25.5516   32.1285  -47.7767 C   0  0  0  0  0  0
  -24.5837   31.5516  -48.5346 N   0  0  0  0  0  0
  -26.4711   33.1343  -45.6426 C   0  0  0  0  0  0
  -27.3633   34.0313  -46.2477 C   0  0  0  0  0  0
  -28.2351   34.7340  -45.4143 C   0  0  0  0  0  0
  -28.2370   34.5779  -44.0662 N   0  0  0  0  0  0
  -27.3679   33.6690  -43.5580 C   0  0  0  0  0  0
  -27.4130   33.5091  -42.1656 N   0  0  0  0  0  0
  -26.9576   32.2894  -41.4959 C   0  0  1  0  0  0
  -26.1579   32.6785  -40.2514 C   0  0  0  0  0  0
  -25.5579   31.4099  -39.6331 C   0  0  0  0  0  0
  -26.6032   30.3097  -39.4333 C   0  0  0  0  0  0
  -26.3328   29.2690  -38.5596 C   0  0  0  0  0  0
  -27.2302   28.2261  -38.3810 C   0  0  0  0  0  0
  -28.4500   28.1900  -39.0307 C   0  0  0  0  0  0
  -28.7287   29.2267  -39.9318 C   0  0  0  0  0  0
  -27.8216   30.2823  -40.1437 C   0  0  0  0  0  0
  -28.1678   31.3936  -41.1197 C   0  0  0  0  0  0
  -29.4130   27.0579  -38.7488 C   0  0  0  0  0  0
  -30.2365   26.6956  -39.5810 O   0  0  0  0  0  0
  -29.4130   26.5264  -37.5221 N   0  0  0  0  0  0
  -30.2130   25.3924  -37.2762 O   0  0  0  0  0  0
  -26.4898   32.9348  -44.2941 N   0  0  0  0  0  0
  -21.4130   30.4690  -48.2898 H   0  0  0  0  0  0
  -22.6898   29.6690  -49.2087 H   0  0  0  0  0  0
  -22.1370   31.2811  -49.6758 H   0  0  0  0  0  0
  -22.2197   31.2246  -46.1253 H   0  0  0  0  0  0
  -23.9960   32.2713  -44.7745 H   0  0  0  0  0  0
  -26.4675   32.3588  -48.3008 H   0  0  0  0  0  0
  -27.3591   34.2150  -47.3114 H   0  0  0  0  0  0
  -28.9323   35.4528  -45.8205 H   0  0  0  0  0  0
  -28.0197   34.1297  -41.6546 H   0  0  0  0  0  0
  -26.3023   31.7192  -42.1572 H   0  0  0  0  0  0
  -26.7922   33.1886  -39.5254 H   0  0  0  0  0  0
  -25.3565   33.3772  -40.4994 H   0  0  0  0  0  0
  -25.0726   31.6581  -38.6874 H   0  0  0  0  0  0
  -24.7727   31.0262  -40.2864 H   0  0  0  0  0  0
  -25.3947   29.2597  -38.0234 H   0  0  0  0  0  0
  -26.9935   27.4444  -37.6763 H   0  0  0  0  0  0
  -29.6671   29.2335  -40.4683 H   0  0  0  0  0  0
  -28.5608   30.8690  -41.9810 H   0  0  0  0  0  0
  -28.9739   31.9893  -40.6937 H   0  0  0  0  0  0
  -28.8455   26.8056  -36.7262 H   0  0  0  0  0  0
  -29.5814   24.6647  -37.2249 H   0  0  0  0  0  0
  1  2  1  0  0  0
  1 29  1  0  0  0
  1 30  1  0  0  0
  1 31  1  0  0  0
  2  3  2  0  0  0
  2  7  1  0  0  0
  3  4  1  0  0  0
  3 32  1  0  0  0
  4  5  2  0  0  0
  4 33  1  0  0  0
  5  6  1  0  0  0
  5  8  1  0  0  0
  6  7  2  0  0  0
  6 34  1  0  0  0
  8  9  2  0  0  0
  8 28  1  0  0  0
  9 10  1  0  0  0
  9 35  1  0  0  0
 10 11  2  0  0  0
 10 36  1  0  0  0
 11 12  1  0  0  0
 12 13  1  0  0  0
 12 28  2  0  0  0
 13 14  1  0  0  0
 13 37  1  0  0  0
 14 15  1  0  0  0
 14 23  1  0  0  0
 14 38  1  0  0  0
 15 16  1  0  0  0
 15 39  1  0  0  0
 15 40  1  0  0  0
 16 17  1  0  0  0
 16 41  1  0  0  0
 16 42  1  0  0  0
 17 18  2  0  0  0
 17 22  1  0  0  0
 18 19  1  0  0  0
 18 43  1  0  0  0
 19 20  2  0  0  0
 19 44  1  0  0  0
 20 21  1  0  0  0
 20 24  1  0  0  0
 21 22  2  0  0  0
 21 45  1  0  0  0
 22 23  1  0  0  0
 23 46  1  0  0  0
 23 47  1  0  0  0
 24 25  2  0  0  0
 24 26  1  0  0  0
 26 27  1  0  0  0
 26 48  1  0  0  0
 27 49  1  0  0  0
M  END
> <s_m_entry_id>
52945

> <s_m_entry_name>
dock_pv.164

> <s_m_Source_Path>
/home/csk/Desktop/cluster/DUD-E-result/hdac8

> <s_m_Source_File>
dock_pv.maegz

> <i_m_Source_File_Index>
164

> <chembl_id>
CHEMBL3694298

> <chembl_pref_name>
None

> <i_lp_mmshare_version>
53161

> <i_f3d_flags>
0

> <r_lp_tautomer_probability>
0.999999987636

> <s_lp_Force_Field>
OPLS_2005

> <r_lp_Energy>
22.021298

> <b_lp_Chiralities_Consistent>
1

> <s_lp_Variant>
CHEMBL3192_lig1050-2

> <s_i_glide_gridfile>
glide-grid_3f07

> <i_i_glide_lignum>
1140

> <i_i_glide_rotatable_bonds>
6

> <r_i_docking_score>
-7.76933879207576

> <r_i_glide_ligand_efficiency>
-0.277476385431277

> <r_i_glide_ligand_efficiency_sa>
-0.842581731020652

> <r_i_glide_ligand_efficiency_ln>
-1.79339151091035

> <r_i_glide_gscore>
-7.76933879207576

> <r_i_glide_lipo>
-1.07407719120828

> <r_i_glide_hbond>
-0.607512351200032

> <r_i_glide_metal>
-2.3

> <r_i_glide_rewards>
-1.09062524462421

> <r_i_glide_evdw>
-20.8654842376709

> <r_i_glide_ecoul>
-14.1291885375977

> <r_i_glide_erotb>
0.686330806018738

> <r_i_glide_esite>
-0.220802318538777

> <r_i_glide_emodel>
-50.8061952319348

> <r_i_glide_energy>
-34.9946727752686

> <r_i_glide_einternal>
4.83745384216309

> <i_i_glide_confnum>
1

> <i_i_glide_posenum>
384

> <r_i_glide_eff_state_penalty>
0

> <s_user_duplicate_titles>
CHEMBL3192_lig1050

> <s_m_subgroup_title>
dock_pv

> <s_m_subgroupid>
dock_pv

> <b_m_subgroup_collapsed>
1

$$$$
CHEMBL3192_lig838
                    3D
 Schrodinger Suite 2021-1.
 50 52  0  0  1  0            999 V2000
  -27.0131   34.1409  -39.5824 O   0  0  0  0  0  0
  -26.7719   34.3833  -40.9535 C   0  0  0  0  0  0
  -25.2739   34.3870  -41.3292 C   0  0  0  0  0  0
  -24.4269   33.1413  -40.9713 C   0  0  0  0  0  0
  -25.1089   31.8831  -41.2790 N   0  0  0  0  0  0
  -25.2744   31.2775  -42.5170 C   0  0  0  0  0  0
  -24.7128   31.8405  -43.8187 C   0  0  0  0  0  0
  -24.6437   30.7995  -44.9619 C   0  0  0  0  0  0
  -24.0984   31.3666  -46.2642 C   0  0  0  0  0  0
  -22.7230   31.5648  -46.4159 C   0  0  0  0  0  0
  -22.2194   32.0574  -47.6170 C   0  0  0  0  0  0
  -23.0940   32.3568  -48.6604 C   0  0  0  0  0  0
  -24.4675   32.1697  -48.5127 C   0  0  0  0  0  0
  -24.9710   31.6725  -47.3121 C   0  0  0  0  0  0
  -25.9804   30.1735  -42.4538 N   0  0  0  0  0  0
  -26.2792   30.0198  -41.1317 C   0  0  0  0  0  0
  -27.0129   29.0073  -40.5088 C   0  0  0  0  0  0
  -27.1726   29.0267  -39.1264 C   0  0  0  0  0  0
  -27.9289   27.9616  -38.4492 C   0  0  0  0  0  0
  -29.1152   27.4586  -38.8604 C   0  0  0  0  0  0
  -29.8792   26.4454  -38.1587 C   0  0  0  0  0  0
  -30.6122   25.6688  -38.7808 O   0  0  0  0  0  0
  -29.8130   26.4690  -36.8188 N   0  0  0  0  0  0
  -30.6158   25.5760  -36.0910 O   0  0  0  0  0  0
  -26.6136   30.0686  -38.3816 C   0  0  0  0  0  0
  -25.8803   31.1029  -38.9683 C   0  0  0  0  0  0
  -25.7287   31.0611  -40.3565 C   0  0  0  0  0  0
  -26.1942   34.2563  -39.0632 H   0  0  0  0  0  0
  -27.2400   35.3262  -41.2349 H   0  0  0  0  0  0
  -27.2879   33.5863  -41.4890 H   0  0  0  0  0  0
  -24.8045   35.2609  -40.8779 H   0  0  0  0  0  0
  -25.2026   34.5585  -42.4034 H   0  0  0  0  0  0
  -24.1817   33.1470  -39.9102 H   0  0  0  0  0  0
  -23.4717   33.1545  -41.4978 H   0  0  0  0  0  0
  -25.3199   32.6892  -44.1357 H   0  0  0  0  0  0
  -23.7085   32.2321  -43.6511 H   0  0  0  0  0  0
  -24.0138   29.9597  -44.6655 H   0  0  0  0  0  0
  -25.6318   30.3746  -45.1483 H   0  0  0  0  0  0
  -22.0415   31.3258  -45.6104 H   0  0  0  0  0  0
  -21.1552   32.2046  -47.7385 H   0  0  0  0  0  0
  -22.7031   32.7430  -49.5911 H   0  0  0  0  0  0
  -25.1390   32.4068  -49.3264 H   0  0  0  0  0  0
  -26.0362   31.5241  -47.2015 H   0  0  0  0  0  0
  -27.4127   28.1987  -41.0814 H   0  0  0  0  0  0
  -27.4455   27.5601  -37.5810 H   0  0  0  0  0  0
  -29.5568   27.8237  -39.7753 H   0  0  0  0  0  0
  -29.2384   27.0758  -36.2343 H   0  0  0  0  0  0
  -31.2724   26.1391  -35.6718 H   0  0  0  0  0  0
  -26.7865   30.1069  -37.3217 H   0  0  0  0  0  0
  -25.4740   31.9051  -38.3748 H   0  0  0  0  0  0
  1  2  1  0  0  0
  1 28  1  0  0  0
  2  3  1  0  0  0
  2 29  1  0  0  0
  2 30  1  0  0  0
  3  4  1  0  0  0
  3 31  1  0  0  0
  3 32  1  0  0  0
  4  5  1  0  0  0
  4 33  1  0  0  0
  4 34  1  0  0  0
  5  6  1  0  0  0
  5 27  1  0  0  0
  6  7  1  0  0  0
  6 15  2  0  0  0
  7  8  1  0  0  0
  7 35  1  0  0  0
  7 36  1  0  0  0
  8  9  1  0  0  0
  8 37  1  0  0  0
  8 38  1  0  0  0
  9 10  2  0  0  0
  9 14  1  0  0  0
 10 11  1  0  0  0
 10 39  1  0  0  0
 11 12  2  0  0  0
 11 40  1  0  0  0
 12 13  1  0  0  0
 12 41  1  0  0  0
 13 14  2  0  0  0
 13 42  1  0  0  0
 14 43  1  0  0  0
 15 16  1  0  0  0
 16 17  2  0  0  0
 16 27  1  0  0  0
 17 18  1  0  0  0
 17 44  1  0  0  0
 18 19  1  0  0  0
 18 25  2  0  0  0
 19 20  2  0  0  0
 19 45  1  0  0  0
 20 21  1  0  0  0
 20 46  1  0  0  0
 21 22  2  0  0  0
 21 23  1  0  0  0
 23 24  1  0  0  0
 23 47  1  0  0  0
 24 48  1  0  0  0
 25 26  1  0  0  0
 25 49  1  0  0  0
 26 27  2  0  0  0
 26 50  1  0  0  0
M  END
> <s_m_entry_id>
52946

> <s_m_entry_name>
dock_pv.165

> <s_m_Source_Path>
/home/csk/Desktop/cluster/DUD-E-result/hdac8

> <s_m_Source_File>
dock_pv.maegz

> <i_m_Source_File_Index>
165

> <chembl_id>
CHEMBL474152

> <chembl_pref_name>
None

> <i_lp_mmshare_version>
53161

> <i_f3d_flags>
0

> <r_lp_tautomer_probability>
1

> <s_lp_Force_Field>
OPLS_2005

> <r_lp_Energy>
27.386165

> <b_lp_Chiralities_Consistent>
1

> <s_lp_Variant>
CHEMBL3192_lig838-1

> <s_i_glide_gridfile>
glide-grid_3f07

> <i_i_glide_lignum>
894

> <i_i_glide_rotatable_bonds>
11

> <r_i_docking_score>
-7.76821963712723

> <r_i_glide_ligand_efficiency>
-0.28771183841212

> <r_i_glide_ligand_efficiency_sa>
-0.863135514288107

> <r_i_glide_ligand_efficiency_ln>
-1.80831346241336

> <r_i_glide_gscore>
-7.76821963712723

> <r_i_glide_lipo>
-1.0824623042385

> <r_i_glide_hbond>
-0.456

> <r_i_glide_metal>
-2.3

> <r_i_glide_rewards>
-1.05001505920759

> <r_i_glide_evdw>
-29.1914138793945

> <r_i_glide_ecoul>
-17.1377143859863

> <r_i_glide_erotb>
1.29646057749742

> <r_i_glide_esite>
-0.145974999310885

> <r_i_glide_emodel>
-68.8357455024292

> <r_i_glide_energy>
-46.3291282653809

> <r_i_glide_einternal>
9.39301300048828

> <i_i_glide_confnum>
39

> <i_i_glide_posenum>
9

> <r_i_glide_eff_state_penalty>
0

> <s_user_duplicate_titles>
CHEMBL3192_lig838

> <s_m_subgroup_title>
dock_pv

> <s_m_subgroupid>
dock_pv

> <b_m_subgroup_collapsed>
1

$$$$
CHEMBL3192_lig442
                    3D
 Schrodinger Suite 2021-1.
 39 40  0  0  1  0            999 V2000
  -24.9612   29.6650  -44.7812 C   0  0  0  0  0  0
  -24.3464   30.7982  -43.9856 C   0  0  0  0  0  0
  -22.9635   31.0074  -43.9810 C   0  0  0  0  0  0
  -22.4150   32.0385  -43.2173 C   0  0  0  0  0  0
  -23.2445   32.8733  -42.4675 C   0  0  0  0  0  0
  -24.6293   32.6837  -42.4918 C   0  0  0  0  0  0
  -25.1755   31.6398  -43.2421 C   0  0  0  0  0  0
  -25.7133   33.7511  -41.5531 S   0  0  0  0  0  0
  -26.9775   33.8756  -42.2881 O   0  0  0  0  0  0
  -24.9458   34.9437  -41.1810 O   0  0  0  0  0  0
  -26.0292   32.8690  -40.0466 N   0  0  0  0  0  0
  -26.7012   31.6432  -39.9664 C   0  0  0  0  0  0
  -27.8130   31.3641  -40.7583 C   0  0  0  0  0  0
  -28.5265   30.1917  -40.5712 C   0  0  0  0  0  0
  -28.1487   29.2817  -39.5832 C   0  0  0  0  0  0
  -29.0434   28.1341  -39.3740 C   0  0  0  0  0  0
  -29.0573   27.2384  -38.3631 C   0  0  0  0  0  0
  -30.0897   26.2269  -38.2758 C   0  0  0  0  0  0
  -30.9172   26.0690  -39.1810 O   0  0  0  0  0  0
  -30.0975   25.5178  -37.1373 N   0  0  0  0  0  0
  -31.0218   24.4690  -37.0130 O   0  0  0  0  0  0
  -27.0130   29.5384  -38.8076 C   0  0  0  0  0  0
  -26.2907   30.7170  -39.0035 C   0  0  0  0  0  0
  -24.2130   28.9823  -45.1810 H   0  0  0  0  0  0
  -25.6314   29.0809  -44.1496 H   0  0  0  0  0  0
  -25.5526   30.0674  -45.6044 H   0  0  0  0  0  0
  -22.3051   30.3789  -44.5631 H   0  0  0  0  0  0
  -21.3457   32.1927  -43.2095 H   0  0  0  0  0  0
  -22.8108   33.6698  -41.8788 H   0  0  0  0  0  0
  -26.2451   31.4854  -43.2515 H   0  0  0  0  0  0
  -25.4130   33.1195  -39.2773 H   0  0  0  0  0  0
  -28.1709   32.0583  -41.4954 H   0  0  0  0  0  0
  -29.4028   30.0218  -41.1810 H   0  0  0  0  0  0
  -29.7999   28.0470  -40.1398 H   0  0  0  0  0  0
  -28.3171   27.2690  -37.5810 H   0  0  0  0  0  0
  -29.4524   25.5789  -36.3608 H   0  0  0  0  0  0
  -30.4928   23.6783  -37.1810 H   0  0  0  0  0  0
  -26.7024   28.8496  -38.0359 H   0  0  0  0  0  0
  -25.4336   30.9287  -38.3794 H   0  0  0  0  0  0
  1  2  1  0  0  0
  1 24  1  0  0  0
  1 25  1  0  0  0
  1 26  1  0  0  0
  2  3  2  0  0  0
  2  7  1  0  0  0
  3  4  1  0  0  0
  3 27  1  0  0  0
  4  5  2  0  0  0
  4 28  1  0  0  0
  5  6  1  0  0  0
  5 29  1  0  0  0
  6  7  2  0  0  0
  6  8  1  0  0  0
  7 30  1  0  0  0
  8  9  2  0  0  0
  8 10  2  0  0  0
  8 11  1  0  0  0
 11 12  1  0  0  0
 11 31  1  0  0  0
 12 13  2  0  0  0
 12 23  1  0  0  0
 13 14  1  0  0  0
 13 32  1  0  0  0
 14 15  2  0  0  0
 14 33  1  0  0  0
 15 16  1  0  0  0
 15 22  1  0  0  0
 16 17  2  0  0  0
 16 34  1  0  0  0
 17 18  1  0  0  0
 17 35  1  0  0  0
 18 19  2  0  0  0
 18 20  1  0  0  0
 20 21  1  0  0  0
 20 36  1  0  0  0
 21 37  1  0  0  0
 22 23  2  0  0  0
 22 38  1  0  0  0
 23 39  1  0  0  0
M  END
> <s_m_entry_id>
52947

> <s_m_entry_name>
dock_pv.166

> <s_m_Source_Path>
/home/csk/Desktop/cluster/DUD-E-result/hdac8

> <s_m_Source_File>
dock_pv.maegz

> <i_m_Source_File_Index>
166

> <chembl_id>
CHEMBL96966

> <chembl_pref_name>
None

> <i_lp_mmshare_version>
53161

> <i_f3d_flags>
0

> <r_lp_tautomer_probability>
1

> <s_lp_Force_Field>
OPLS_2005

> <r_lp_Energy>
17.107636

> <b_lp_Chiralities_Consistent>
1

> <s_lp_Variant>
CHEMBL3192_lig442-1

> <s_i_glide_gridfile>
glide-grid_3f07

> <i_i_glide_lignum>
461

> <i_i_glide_rotatable_bonds>
7

> <r_i_docking_score>
-7.76164497270998

> <r_i_glide_ligand_efficiency>
-0.337462824900434

> <r_i_glide_ligand_efficiency_sa>
-0.959699383658731

> <r_i_glide_ligand_efficiency_ln>
-1.8768361331068

> <r_i_glide_gscore>
-7.76164497270998

> <r_i_glide_lipo>
-1.0987151372759

> <r_i_glide_hbond>
-0.36813495871243

> <r_i_glide_metal>
-2.3

> <r_i_glide_rewards>
-1.31461863102548

> <r_i_glide_evdw>
-31.2174797058105

> <r_i_glide_ecoul>
-12.7568836212158

> <r_i_glide_erotb>
1.02288746066312

> <r_i_glide_esite>
-0.228657177886392

> <r_i_glide_emodel>
-69.0662895368497

> <r_i_glide_energy>
-43.9743633270264

> <r_i_glide_einternal>
1.30222392082214

> <i_i_glide_confnum>
52

> <i_i_glide_posenum>
118

> <r_i_glide_eff_state_penalty>
0

> <s_user_duplicate_titles>
CHEMBL3192_lig442

> <s_m_subgroup_title>
dock_pv

> <s_m_subgroupid>
dock_pv

> <b_m_subgroup_collapsed>
1

$$$$
CHEMBL3192_lig206
                    3D
 Schrodinger Suite 2021-1.
 44 46  0  0  1  0            999 V2000
  -26.9747   28.8705  -38.7499 C   0  0  0  0  0  0
  -28.2361   28.9377  -39.3458 C   0  0  0  0  0  0
  -28.5346   30.0382  -40.1428 C   0  0  0  0  0  0
  -26.0198   29.8526  -38.9987 C   0  0  0  0  0  0
  -26.3048   30.9401  -39.8239 C   0  0  0  0  0  0
  -27.6011   31.0566  -40.3567 C   0  0  0  0  0  0
  -25.7367   33.2024  -41.0081 C   0  0  2  0  0  0
  -25.2395   32.0009  -40.1305 C   0  0  0  0  0  0
  -27.1751   33.4536  -40.8014 N   0  0  2  0  0  0
  -27.9552   32.2749  -41.1807 C   0  0  0  0  0  0
  -25.4246   33.1075  -42.5400 C   0  0  0  0  0  0
  -26.1119   33.7624  -43.3311 O   0  0  0  0  0  0
  -24.3992   32.3320  -42.9544 N   0  0  0  0  0  0
  -24.1076   32.0181  -44.2920 C   0  0  0  0  0  0
  -25.1125   31.6824  -45.2144 C   0  0  0  0  0  0
  -24.7832   31.3570  -46.5307 C   0  0  0  0  0  0
  -23.4452   31.3656  -46.9341 C   0  0  0  0  0  0
  -22.4468   31.6974  -46.0188 C   0  0  0  0  0  0
  -22.7714   32.0049  -44.6972 C   0  0  0  0  0  0
  -25.1892   34.1005  -40.7147 H   0  0  0  0  0  0
  -29.2107   27.9719  -39.2151 O   0  0  0  0  0  0
  -29.1949   27.1353  -38.0584 C   0  0  0  0  0  0
  -30.3030   26.0866  -38.1664 C   0  0  0  0  0  0
  -31.0128   26.0691  -39.1789 O   0  0  0  0  0  0
  -30.4441   25.2607  -37.1181 N   0  0  0  0  0  0
  -31.4131   24.2491  -37.1902 O   0  0  0  0  0  0
  -26.0375   30.9457  -47.6464 Cl  0  0  0  0  0  0
  -23.1057   31.0445  -48.2043 F   0  0  0  0  0  0
  -26.6950   28.0519  -38.1097 H   0  0  0  0  0  0
  -29.5148   30.1043  -40.5914 H   0  0  0  0  0  0
  -25.0385   29.7589  -38.5547 H   0  0  0  0  0  0
  -24.9031   32.4061  -39.1807 H   0  0  0  0  0  0
  -24.3540   31.5134  -40.5358 H   0  0  0  0  0  0
  -27.4182   34.2451  -41.3842 H   0  0  0  0  0  0
  -27.8109   32.0194  -42.2283 H   0  0  0  0  0  0
  -29.0064   32.5191  -41.0501 H   0  0  0  0  0  0
  -23.7387   32.0148  -42.2610 H   0  0  0  0  0  0
  -26.1501   31.6698  -44.9129 H   0  0  0  0  0  0
  -21.4124   31.6999  -46.3312 H   0  0  0  0  0  0
  -21.9809   32.2491  -44.0018 H   0  0  0  0  0  0
  -29.4039   27.7480  -37.1816 H   0  0  0  0  0  0
  -28.2449   26.6147  -37.9826 H   0  0  0  0  0  0
  -29.8841   25.2188  -36.2761 H   0  0  0  0  0  0
  -30.8975   23.4511  -37.3651 H   0  0  0  0  0  0
  1  4  1  0  0  0
  1  2  2  0  0  0
  1 29  1  0  0  0
  2  3  1  0  0  0
  2 21  1  0  0  0
  3  6  2  0  0  0
  3 30  1  0  0  0
  4  5  2  0  0  0
  4 31  1  0  0  0
  5  8  1  0  0  0
  5  6  1  0  0  0
  6 10  1  0  0  0
  7  8  1  0  0  0
  7 20  1  0  0  0
  7  9  1  0  0  0
  7 11  1  0  0  0
  8 32  1  0  0  0
  8 33  1  0  0  0
  9 10  1  0  0  0
  9 34  1  0  0  0
 10 35  1  0  0  0
 10 36  1  0  0  0
 11 12  2  0  0  0
 11 13  1  0  0  0
 13 14  1  0  0  0
 13 37  1  0  0  0
 14 15  2  0  0  0
 14 19  1  0  0  0
 15 16  1  0  0  0
 15 38  1  0  0  0
 16 17  2  0  0  0
 16 27  1  0  0  0
 17 18  1  0  0  0
 17 28  1  0  0  0
 18 19  2  0  0  0
 18 39  1  0  0  0
 19 40  1  0  0  0
 21 22  1  0  0  0
 22 23  1  0  0  0
 22 41  1  0  0  0
 22 42  1  0  0  0
 23 24  2  0  0  0
 23 25  1  0  0  0
 25 26  1  0  0  0
 25 43  1  0  0  0
 26 44  1  0  0  0
M  END
> <s_m_entry_id>
52948

> <s_m_entry_name>
dock_pv.167

> <s_m_Source_Path>
/home/csk/Desktop/cluster/DUD-E-result/hdac8

> <s_m_Source_File>
dock_pv.maegz

> <i_m_Source_File_Index>
167

> <chembl_id>
CHEMBL604097

> <chembl_pref_name>
None

> <i_lp_mmshare_version>
53161

> <i_f3d_flags>
0

> <r_lp_tautomer_probability>
1

> <s_lp_Force_Field>
OPLS_2005

> <r_lp_Energy>
37.136858

> <b_lp_Chiralities_Consistent>
1

> <s_lp_Variant>
CHEMBL3192_lig206-1

> <s_i_glide_gridfile>
glide-grid_3f07

> <i_i_glide_lignum>
216

> <i_i_glide_rotatable_bonds>
8

> <r_i_docking_score>
-7.75040410915526

> <r_i_glide_ligand_efficiency>
-0.287052004042788

> <r_i_glide_ligand_efficiency_sa>
-0.861156011182286

> <r_i_glide_ligand_efficiency_ln>
-1.80416630121342

> <r_i_glide_gscore>
-7.75040410915526

> <r_i_glide_lipo>
-1.06812025613116

> <r_i_glide_hbond>
-0.417909661132447

> <r_i_glide_metal>
-2.3

> <r_i_glide_rewards>
-0.660121194449019

> <r_i_glide_evdw>
-32.4715042114258

> <r_i_glide_ecoul>
-16.3879737854004

> <r_i_glide_erotb>
0.881951081411562

> <r_i_glide_esite>
-0.104432800472853

> <r_i_glide_emodel>
-67.3241975123379

> <r_i_glide_energy>
-48.8594779968262

> <r_i_glide_einternal>
15.5435905456543

> <i_i_glide_confnum>
2

> <i_i_glide_posenum>
174

> <r_i_glide_eff_state_penalty>
0

> <s_user_duplicate_titles>
CHEMBL3192_lig206

> <s_m_subgroup_title>
dock_pv

> <s_m_subgroupid>
dock_pv

> <b_m_subgroup_collapsed>
1

$$$$
CHEMBL3192_lig1035
                    3D
 Schrodinger Suite 2021-1.
 47 50  0  0  1  0            999 V2000
  -30.6123   24.8690  -38.2108 O   0  0  0  0  0  0
  -29.7205   25.9593  -38.1284 N   0  0  0  0  0  0
  -29.7383   26.8690  -39.1140 C   0  0  0  0  0  0
  -30.6130   26.8690  -39.9810 O   0  0  0  0  0  0
  -28.7197   27.9919  -39.1379 C   0  0  0  0  0  0
  -27.5559   27.9481  -38.3810 C   0  0  0  0  0  0
  -26.6130   28.9594  -38.4870 C   0  0  0  0  0  0
  -26.7691   30.0481  -39.3278 C   0  0  0  0  0  0
  -25.6386   31.0735  -39.4417 C   0  0  0  0  0  0
  -26.0715   32.3599  -40.1675 C   0  0  0  0  0  0
  -26.8845   32.0588  -41.4321 C   0  0  2  0  0  0
  -28.1608   31.2689  -41.0702 C   0  0  0  0  0  0
  -27.9379   30.1158  -40.1037 C   0  0  0  0  0  0
  -28.8990   29.1032  -39.9810 C   0  0  0  0  0  0
  -26.0638   31.2989  -42.3786 N   0  0  0  0  0  0
  -26.1124   31.4790  -43.7668 C   0  0  0  0  0  0
  -25.2803   30.6792  -44.4776 N   0  0  0  0  0  0
  -25.2599   30.8690  -45.8198 C   0  0  0  0  0  0
  -26.0700   31.8068  -46.4595 C   0  0  0  0  0  0
  -26.9198   32.5844  -45.6585 C   0  0  0  0  0  0
  -26.9302   32.4262  -44.3035 N   0  0  0  0  0  0
  -27.8099   33.6502  -46.2235 C   0  0  0  0  0  0
  -28.2130   33.6107  -47.5676 C   0  0  0  0  0  0
  -29.0129   34.6154  -48.1054 C   0  0  0  0  0  0
  -29.4321   35.6690  -47.3000 C   0  0  0  0  0  0
  -29.0607   35.7230  -45.9609 C   0  0  0  0  0  0
  -28.2554   34.7199  -45.4289 C   0  0  0  0  0  0
  -30.0385   24.0888  -38.1469 H   0  0  0  0  0  0
  -29.0967   25.9145  -37.3331 H   0  0  0  0  0  0
  -27.3414   27.1224  -37.7266 H   0  0  0  0  0  0
  -25.6695   28.8690  -37.9810 H   0  0  0  0  0  0
  -25.2510   31.3255  -38.4527 H   0  0  0  0  0  0
  -24.8087   30.6136  -39.9802 H   0  0  0  0  0  0
  -26.6643   32.9774  -39.4923 H   0  0  0  0  0  0
  -25.1932   32.9614  -40.4086 H   0  0  0  0  0  0
  -27.1855   32.9993  -41.8963 H   0  0  0  0  0  0
  -28.6130   30.8690  -41.9744 H   0  0  0  0  0  0
  -28.8848   31.9486  -40.6244 H   0  0  0  0  0  0
  -29.7896   29.1841  -40.5888 H   0  0  0  0  0  0
  -25.5501   30.5057  -42.0261 H   0  0  0  0  0  0
  -24.5697   30.2580  -46.3810 H   0  0  0  0  0  0
  -26.0130   31.9334  -47.5297 H   0  0  0  0  0  0
  -27.9208   32.7947  -48.2113 H   0  0  0  0  0  0
  -29.3211   34.5681  -49.1395 H   0  0  0  0  0  0
  -30.0599   36.4433  -47.7157 H   0  0  0  0  0  0
  -29.3909   36.5420  -45.3391 H   0  0  0  0  0  0
  -27.9658   34.7897  -44.3905 H   0  0  0  0  0  0
  1  2  1  0  0  0
  1 28  1  0  0  0
  2  3  1  0  0  0
  2 29  1  0  0  0
  3  4  2  0  0  0
  3  5  1  0  0  0
  5  6  2  0  0  0
  5 14  1  0  0  0
  6  7  1  0  0  0
  6 30  1  0  0  0
  7  8  2  0  0  0
  7 31  1  0  0  0
  8  9  1  0  0  0
  8 13  1  0  0  0
  9 10  1  0  0  0
  9 32  1  0  0  0
  9 33  1  0  0  0
 10 11  1  0  0  0
 10 34  1  0  0  0
 10 35  1  0  0  0
 11 12  1  0  0  0
 11 15  1  0  0  0
 11 36  1  0  0  0
 12 13  1  0  0  0
 12 37  1  0  0  0
 12 38  1  0  0  0
 13 14  2  0  0  0
 14 39  1  0  0  0
 15 16  1  0  0  0
 15 40  1  0  0  0
 16 17  2  0  0  0
 16 21  1  0  0  0
 17 18  1  0  0  0
 18 19  2  0  0  0
 18 41  1  0  0  0
 19 20  1  0  0  0
 19 42  1  0  0  0
 20 21  2  0  0  0
 20 22  1  0  0  0
 22 23  2  0  0  0
 22 27  1  0  0  0
 23 24  1  0  0  0
 23 43  1  0  0  0
 24 25  2  0  0  0
 24 44  1  0  0  0
 25 26  1  0  0  0
 25 45  1  0  0  0
 26 27  2  0  0  0
 26 46  1  0  0  0
 27 47  1  0  0  0
M  END
> <s_m_entry_id>
52949

> <s_m_entry_name>
dock_pv.168

> <s_m_Source_Path>
/home/csk/Desktop/cluster/DUD-E-result/hdac8

> <s_m_Source_File>
dock_pv.maegz

> <i_m_Source_File_Index>
168

> <chembl_id>
CHEMBL3357478

> <chembl_pref_name>
None

> <i_lp_mmshare_version>
53161

> <i_f3d_flags>
0

> <r_lp_tautomer_probability>
0.999999987636

> <s_lp_Force_Field>
OPLS_2005

> <r_lp_Energy>
21.892795

> <b_lp_Chiralities_Consistent>
1

> <s_lp_Variant>
CHEMBL3192_lig1035-1

> <s_i_glide_gridfile>
glide-grid_3f07

> <i_i_glide_lignum>
1109

> <i_i_glide_rotatable_bonds>
6

> <r_i_docking_score>
-7.74645758041367

> <r_i_glide_ligand_efficiency>
-0.286905836311617

> <r_i_glide_ligand_efficiency_sa>
-0.860717507989257

> <r_i_glide_ligand_efficiency_ln>
-1.80324761438598

> <r_i_glide_gscore>
-7.74645758041367

> <r_i_glide_lipo>
-1.20868058147158

> <r_i_glide_hbond>
-0.304

> <r_i_glide_metal>
-2.3

> <r_i_glide_rewards>
-1.25658033441064

> <r_i_glide_evdw>
-18.46750831604

> <r_i_glide_ecoul>
-15.2803955078125

> <r_i_glide_erotb>
0.738238077442426

> <r_i_glide_esite>
-0.2

> <r_i_glide_emodel>
-50.6629183802032

> <r_i_glide_energy>
-33.7479038238525

> <r_i_glide_einternal>
1.38886225223541

> <i_i_glide_confnum>
66

> <i_i_glide_posenum>
236

> <r_i_glide_eff_state_penalty>
0

> <s_user_duplicate_titles>
CHEMBL3192_lig1035

> <s_m_subgroup_title>
dock_pv

> <s_m_subgroupid>
dock_pv

> <b_m_subgroup_collapsed>
1

$$$$
CHEMBL3192_lig421
                    3D
 Schrodinger Suite 2021-1.
 48 49  0  0  1  0            999 V2000
  -20.7878   31.1161  -39.8767 C   0  0  0  0  0  0
  -21.8872   31.0845  -38.8033 C   0  0  0  0  0  0
  -23.2430   31.6489  -39.2636 C   0  0  0  0  0  0
  -23.9396   30.8339  -40.3716 C   0  0  0  0  0  0
  -25.1795   31.4422  -40.9105 N   0  0  0  0  0  0
  -26.2386   31.6696  -39.9090 C   0  0  0  0  0  0
  -27.0547   30.4222  -39.6097 C   0  0  0  0  0  0
  -26.6131   29.5026  -38.6620 C   0  0  0  0  0  0
  -27.3753   28.3705  -38.3811 C   0  0  0  0  0  0
  -28.5863   28.1436  -39.0371 C   0  0  0  0  0  0
  -29.0160   29.0825  -39.9811 C   0  0  0  0  0  0
  -28.2631   30.2139  -40.2672 C   0  0  0  0  0  0
  -29.4303   26.9242  -38.7400 C   0  0  0  0  0  0
  -30.2130   26.4699  -39.5808 O   0  0  0  0  0  0
  -29.4220   26.4691  -37.4845 N   0  0  0  0  0  0
  -30.2130   25.3452  -37.1740 O   0  0  0  0  0  0
  -25.4762   31.5647  -42.2392 C   0  0  0  0  0  0
  -26.5976   31.9041  -42.6287 O   0  0  0  0  0  0
  -24.4488   31.3155  -43.0845 N   0  0  0  0  0  0
  -24.4190   31.2947  -44.4914 C   0  0  0  0  0  0
  -23.1488   31.2750  -45.0742 C   0  0  0  0  0  0
  -23.0128   31.2690  -46.4593 C   0  0  0  0  0  0
  -24.1481   31.2696  -47.2649 C   0  0  0  0  0  0
  -25.4197   31.2692  -46.6975 C   0  0  0  0  0  0
  -25.5591   31.2767  -45.3121 C   0  0  0  0  0  0
  -19.8375   30.7758  -39.4651 H   0  0  0  0  0  0
  -21.0220   30.4699  -40.7215 H   0  0  0  0  0  0
  -20.6387   32.1268  -40.2584 H   0  0  0  0  0  0
  -21.5441   31.6691  -37.9483 H   0  0  0  0  0  0
  -22.0170   30.0697  -38.4254 H   0  0  0  0  0  0
  -23.1173   32.6853  -39.5810 H   0  0  0  0  0  0
  -23.8802   31.6689  -38.3820 H   0  0  0  0  0  0
  -24.1677   29.8335  -40.0040 H   0  0  0  0  0  0
  -23.2049   30.6725  -41.1554 H   0  0  0  0  0  0
  -26.9182   32.4491  -40.2571 H   0  0  0  0  0  0
  -25.8335   32.0692  -38.9801 H   0  0  0  0  0  0
  -25.6748   29.6606  -38.1504 H   0  0  0  0  0  0
  -27.0130   27.6661  -37.6477 H   0  0  0  0  0  0
  -29.9468   28.9479  -40.5118 H   0  0  0  0  0  0
  -28.6117   30.9170  -41.0104 H   0  0  0  0  0  0
  -28.8864   26.8237  -36.6956 H   0  0  0  0  0  0
  -29.5837   24.6142  -37.1561 H   0  0  0  0  0  0
  -23.5588   31.1428  -42.6460 H   0  0  0  0  0  0
  -22.2570   31.2784  -44.4637 H   0  0  0  0  0  0
  -22.0281   31.2643  -46.9044 H   0  0  0  0  0  0
  -24.0404   31.2696  -48.3397 H   0  0  0  0  0  0
  -26.2968   31.2623  -47.3284 H   0  0  0  0  0  0
  -26.5583   31.2642  -44.9058 H   0  0  0  0  0  0
  1  2  1  0  0  0
  1 26  1  0  0  0
  1 27  1  0  0  0
  1 28  1  0  0  0
  2  3  1  0  0  0
  2 29  1  0  0  0
  2 30  1  0  0  0
  3  4  1  0  0  0
  3 31  1  0  0  0
  3 32  1  0  0  0
  4  5  1  0  0  0
  4 33  1  0  0  0
  4 34  1  0  0  0
  5  6  1  0  0  0
  5 17  1  0  0  0
  6  7  1  0  0  0
  6 35  1  0  0  0
  6 36  1  0  0  0
  7  8  2  0  0  0
  7 12  1  0  0  0
  8  9  1  0  0  0
  8 37  1  0  0  0
  9 10  2  0  0  0
  9 38  1  0  0  0
 10 11  1  0  0  0
 10 13  1  0  0  0
 11 12  2  0  0  0
 11 39  1  0  0  0
 12 40  1  0  0  0
 13 14  2  0  0  0
 13 15  1  0  0  0
 15 16  1  0  0  0
 15 41  1  0  0  0
 16 42  1  0  0  0
 17 18  2  0  0  0
 17 19  1  0  0  0
 19 20  1  0  0  0
 19 43  1  0  0  0
 20 21  2  0  0  0
 20 25  1  0  0  0
 21 22  1  0  0  0
 21 44  1  0  0  0
 22 23  2  0  0  0
 22 45  1  0  0  0
 23 24  1  0  0  0
 23 46  1  0  0  0
 24 25  2  0  0  0
 24 47  1  0  0  0
 25 48  1  0  0  0
M  END
> <s_m_entry_id>
52950

> <s_m_entry_name>
dock_pv.169

> <s_m_Source_Path>
/home/csk/Desktop/cluster/DUD-E-result/hdac8

> <s_m_Source_File>
dock_pv.maegz

> <i_m_Source_File_Index>
169

> <chembl_id>
CHEMBL2179618

> <chembl_pref_name>
NEXTURASTAT A

> <i_lp_mmshare_version>
53161

> <i_f3d_flags>
0

> <r_lp_tautomer_probability>
1

> <s_lp_Force_Field>
OPLS_2005

> <r_lp_Energy>
39.021298

> <b_lp_Chiralities_Consistent>
1

> <s_lp_Variant>
CHEMBL3192_lig421-1

> <s_i_glide_gridfile>
glide-grid_3f07

> <i_i_glide_lignum>
440

> <i_i_glide_rotatable_bonds>
11

> <r_i_docking_score>
-7.74300291826836

> <r_i_glide_ligand_efficiency>
-0.309720116730734

> <r_i_glide_ligand_efficiency_sa>
-0.905627114230326

> <r_i_glide_ligand_efficiency_ln>
-1.83532373070266

> <r_i_glide_gscore>
-7.74300291826836

> <r_i_glide_lipo>
-1.18513556611417

> <r_i_glide_hbond>
-0.606203173971739

> <r_i_glide_metal>
-2.3

> <r_i_glide_rewards>
-1.35558175375609

> <r_i_glide_evdw>
-24.7862014770508

> <r_i_glide_ecoul>
-14.3271112442017

> <r_i_glide_erotb>
1.30062083102186

> <r_i_glide_esite>
-0.208326494965427

> <r_i_glide_emodel>
-58.6253925681753

> <r_i_glide_energy>
-39.1133127212524

> <r_i_glide_einternal>
6.17593002319336

> <i_i_glide_confnum>
17

> <i_i_glide_posenum>
136

> <r_i_glide_eff_state_penalty>
0

> <s_user_duplicate_titles>
CHEMBL3192_lig421

> <s_m_subgroup_title>
dock_pv

> <s_m_subgroupid>
dock_pv

> <b_m_subgroup_collapsed>
1

$$$$
CHEMBL3192_lig444
                    3D
 Schrodinger Suite 2021-1.
 39 40  0  0  1  0            999 V2000
  -31.0130   24.6335  -36.9182 O   0  0  0  0  0  0
  -30.0757   25.6686  -37.0770 N   0  0  0  0  0  0
  -30.0275   26.3031  -38.2576 C   0  0  0  0  0  0
  -30.8140   26.0690  -39.1810 O   0  0  0  0  0  0
  -29.0132   27.3291  -38.3674 C   0  0  0  0  0  0
  -29.0130   28.2031  -39.3981 C   0  0  0  0  0  0
  -28.1370   29.3667  -39.6186 C   0  0  0  0  0  0
  -28.5248   30.2607  -40.6177 C   0  0  0  0  0  0
  -27.8524   31.4610  -40.7891 C   0  0  0  0  0  0
  -26.7805   31.7878  -39.9675 C   0  0  0  0  0  0
  -26.2130   33.0673  -39.9810 N   0  0  0  0  0  0
  -25.8855   34.0228  -41.4326 S   0  0  0  0  0  0
  -27.1073   34.0680  -42.2448 O   0  0  0  0  0  0
  -25.2429   35.2579  -40.9734 O   0  0  0  0  0  0
  -24.6520   33.0752  -42.3026 C   0  0  0  0  0  0
  -23.3113   33.1480  -41.9167 C   0  0  0  0  0  0
  -22.3550   32.3856  -42.5872 C   0  0  0  0  0  0
  -22.7375   31.5465  -43.6346 C   0  0  0  0  0  0
  -24.0836   31.4554  -44.0129 C   0  0  0  0  0  0
  -25.0378   32.2248  -43.3391 C   0  0  0  0  0  0
  -24.4936   30.5199  -45.1424 C   0  0  0  0  0  0
  -24.2130   29.2690  -44.7810 F   0  0  0  0  0  0
  -25.7968   30.5885  -45.4214 F   0  0  0  0  0  0
  -23.8130   30.8259  -46.2472 F   0  0  0  0  0  0
  -26.3366   30.8666  -39.0145 C   0  0  0  0  0  0
  -27.0132   29.6579  -38.8361 C   0  0  0  0  0  0
  -30.4921   23.8314  -37.0475 H   0  0  0  0  0  0
  -29.4748   25.7979  -36.2735 H   0  0  0  0  0  0
  -28.2795   27.3886  -37.5810 H   0  0  0  0  0  0
  -29.7616   28.0834  -40.1673 H   0  0  0  0  0  0
  -29.3870   30.0612  -41.2377 H   0  0  0  0  0  0
  -28.2130   32.1505  -41.5292 H   0  0  0  0  0  0
  -25.6193   33.3167  -39.1921 H   0  0  0  0  0  0
  -23.0119   33.7902  -41.0989 H   0  0  0  0  0  0
  -21.3170   32.4452  -42.2933 H   0  0  0  0  0  0
  -21.9846   30.9639  -44.1485 H   0  0  0  0  0  0
  -26.0811   32.1635  -43.6153 H   0  0  0  0  0  0
  -25.5050   31.1127  -38.3688 H   0  0  0  0  0  0
  -26.6886   28.9806  -38.0601 H   0  0  0  0  0  0
  1  2  1  0  0  0
  1 27  1  0  0  0
  2  3  1  0  0  0
  2 28  1  0  0  0
  3  4  2  0  0  0
  3  5  1  0  0  0
  5  6  2  0  0  0
  5 29  1  0  0  0
  6  7  1  0  0  0
  6 30  1  0  0  0
  7  8  2  0  0  0
  7 26  1  0  0  0
  8  9  1  0  0  0
  8 31  1  0  0  0
  9 10  2  0  0  0
  9 32  1  0  0  0
 10 11  1  0  0  0
 10 25  1  0  0  0
 11 12  1  0  0  0
 11 33  1  0  0  0
 12 13  2  0  0  0
 12 14  2  0  0  0
 12 15  1  0  0  0
 15 16  2  0  0  0
 15 20  1  0  0  0
 16 17  1  0  0  0
 16 34  1  0  0  0
 17 18  2  0  0  0
 17 35  1  0  0  0
 18 19  1  0  0  0
 18 36  1  0  0  0
 19 20  2  0  0  0
 19 21  1  0  0  0
 20 37  1  0  0  0
 21 22  1  0  0  0
 21 23  1  0  0  0
 21 24  1  0  0  0
 25 26  2  0  0  0
 25 38  1  0  0  0
 26 39  1  0  0  0
M  END
> <s_m_entry_id>
52951

> <s_m_entry_name>
dock_pv.170

> <s_m_Source_Path>
/home/csk/Desktop/cluster/DUD-E-result/hdac8

> <s_m_Source_File>
dock_pv.maegz

> <i_m_Source_File_Index>
170

> <chembl_id>
CHEMBL95195

> <chembl_pref_name>
None

> <i_lp_mmshare_version>
53161

> <i_f3d_flags>
0

> <r_lp_tautomer_probability>
1

> <s_lp_Force_Field>
OPLS_2005

> <r_lp_Energy>
16.674603

> <b_lp_Chiralities_Consistent>
1

> <s_lp_Variant>
CHEMBL3192_lig444-1

> <s_i_glide_gridfile>
glide-grid_3f07

> <i_i_glide_lignum>
463

> <i_i_glide_rotatable_bonds>
8

> <r_i_docking_score>
-7.73783368369865

> <r_i_glide_ligand_efficiency>
-0.297608987834564

> <r_i_glide_ligand_efficiency_sa>
-0.881665455425074

> <r_i_glide_ligand_efficiency_ln>
-1.81720485071342

> <r_i_glide_gscore>
-7.73783368369865

> <r_i_glide_lipo>
-0.960232728136958

> <r_i_glide_hbond>
-0.376608047115212

> <r_i_glide_metal>
-2.3

> <r_i_glide_rewards>
-0.976088790903392

> <r_i_glide_evdw>
-29.9259624481201

> <r_i_glide_ecoul>
-14.500922203064

> <r_i_glide_erotb>
0.782337769487778

> <r_i_glide_esite>
-0.235805434165266

> <r_i_glide_emodel>
-69.713377471298

> <r_i_glide_energy>
-44.4268846511841

> <r_i_glide_einternal>
1.87063932418823

> <i_i_glide_confnum>
26

> <i_i_glide_posenum>
352

> <r_i_glide_eff_state_penalty>
0

> <s_user_duplicate_titles>
CHEMBL3192_lig444

> <s_m_subgroup_title>
dock_pv

> <s_m_subgroupid>
dock_pv

> <b_m_subgroup_collapsed>
1

$$$$
CHEMBL3192_lig572
                    3D
 Schrodinger Suite 2021-1.
 51 52  0  0  1  0            999 V2000
  -22.8232   31.4172  -46.9962 C   0  0  0  0  0  0
  -23.8876   31.4027  -47.8949 C   0  0  0  0  0  0
  -25.1987   31.2814  -47.4403 C   0  0  0  0  0  0
  -25.4468   31.1648  -46.0755 C   0  0  0  0  0  0
  -24.3781   31.1709  -45.1676 C   0  0  0  0  0  0
  -23.0688   31.3090  -45.6296 C   0  0  0  0  0  0
  -24.5684   31.1203  -43.7782 N   0  0  0  0  0  0
  -25.5403   30.4685  -43.1045 C   0  0  0  0  0  0
  -25.6417   30.6801  -41.5637 C   0  0  2  0  0  0
  -26.3192   29.6693  -43.6296 O   0  0  0  0  0  0
  -27.1195   30.8964  -41.1100 C   0  0  0  0  0  0
  -24.7136   31.6759  -40.9873 N   0  0  0  0  0  0
  -27.3425   30.8504  -39.5822 C   0  0  0  0  0  0
  -27.2903   29.4381  -38.9690 C   0  0  0  0  0  0
  -24.7180   33.0032  -41.2194 C   0  0  0  0  0  0
  -23.5990   33.8262  -40.5341 C   0  0  1  0  0  0
  -25.5272   33.5395  -41.9798 O   0  0  0  0  0  0
  -28.5921   28.6369  -39.1704 C   0  0  0  0  0  0
  -28.4920   27.2128  -38.5909 C   0  0  0  0  0  0
  -29.8132   26.4304  -38.5797 C   0  0  0  0  0  0
  -30.0804   25.6891  -37.4921 N   0  0  0  0  0  0
  -30.5600   26.4690  -39.5664 O   0  0  0  0  0  0
  -31.2130   24.8636  -37.5077 O   0  0  0  0  0  0
  -22.5930   34.3456  -41.5027 N   0  0  0  0  0  0
  -22.8301   35.6811  -41.2035 C   0  0  0  0  0  0
  -23.9838   35.3065  -40.2429 C   0  0  0  0  0  0
  -22.3091   36.7276  -41.5812 O   0  0  0  0  0  0
  -21.8096   31.5154  -47.3558 H   0  0  0  0  0  0
  -23.6934   31.4937  -48.9536 H   0  0  0  0  0  0
  -26.0216   31.2842  -48.1411 H   0  0  0  0  0  0
  -26.4687   31.0900  -45.7339 H   0  0  0  0  0  0
  -22.2358   31.3279  -44.9404 H   0  0  0  0  0  0
  -23.9289   31.6730  -43.2280 H   0  0  0  0  0  0
  -25.3042   29.7279  -41.1544 H   0  0  0  0  0  0
  -27.4641   31.8653  -41.4743 H   0  0  0  0  0  0
  -27.7844   30.1695  -41.5791 H   0  0  0  0  0  0
  -24.0255   31.3049  -40.3472 H   0  0  0  0  0  0
  -26.6133   31.4931  -39.0850 H   0  0  0  0  0  0
  -28.3164   31.2832  -39.3561 H   0  0  0  0  0  0
  -26.4403   28.8809  -39.3656 H   0  0  0  0  0  0
  -27.0957   29.5323  -37.9000 H   0  0  0  0  0  0
  -23.1287   33.2875  -39.7065 H   0  0  0  0  0  0
  -29.4080   29.1783  -38.6883 H   0  0  0  0  0  0
  -28.8340   28.5873  -40.2329 H   0  0  0  0  0  0
  -27.7755   26.6395  -39.1805 H   0  0  0  0  0  0
  -28.0887   27.2689  -37.5810 H   0  0  0  0  0  0
  -29.5105   25.5727  -36.6636 H   0  0  0  0  0  0
  -30.8471   23.9729  -37.5803 H   0  0  0  0  0  0
  -21.7318   33.9179  -41.8102 H   0  0  0  0  0  0
  -24.9645   35.6480  -40.5801 H   0  0  0  0  0  0
  -23.8129   35.6322  -39.2157 H   0  0  0  0  0  0
  1  2  2  0  0  0
  1  6  1  0  0  0
  1 28  1  0  0  0
  2  3  1  0  0  0
  2 29  1  0  0  0
  3  4  2  0  0  0
  3 30  1  0  0  0
  4  5  1  0  0  0
  4 31  1  0  0  0
  5  6  2  0  0  0
  5  7  1  0  0  0
  6 32  1  0  0  0
  7  8  1  0  0  0
  7 33  1  0  0  0
  8  9  1  0  0  0
  8 10  2  0  0  0
  9 11  1  0  0  0
  9 12  1  0  0  0
  9 34  1  0  0  0
 11 13  1  0  0  0
 11 35  1  0  0  0
 11 36  1  0  0  0
 12 15  1  0  0  0
 12 37  1  0  0  0
 13 14  1  0  0  0
 13 38  1  0  0  0
 13 39  1  0  0  0
 14 18  1  0  0  0
 14 40  1  0  0  0
 14 41  1  0  0  0
 15 16  1  0  0  0
 15 17  2  0  0  0
 16 24  1  0  0  0
 16 26  1  0  0  0
 16 42  1  0  0  0
 18 19  1  0  0  0
 18 43  1  0  0  0
 18 44  1  0  0  0
 19 20  1  0  0  0
 19 45  1  0  0  0
 19 46  1  0  0  0
 20 21  1  0  0  0
 20 22  2  0  0  0
 21 23  1  0  0  0
 21 47  1  0  0  0
 23 48  1  0  0  0
 24 25  1  0  0  0
 24 49  1  0  0  0
 25 26  1  0  0  0
 25 27  2  0  0  0
 26 50  1  0  0  0
 26 51  1  0  0  0
M  END
> <s_m_entry_id>
52952

> <s_m_entry_name>
dock_pv.171

> <s_m_Source_Path>
/home/csk/Desktop/cluster/DUD-E-result/hdac8

> <s_m_Source_File>
dock_pv.maegz

> <i_m_Source_File_Index>
171

> <chembl_id>
CHEMBL3098695

> <chembl_pref_name>
None

> <i_lp_mmshare_version>
53161

> <i_f3d_flags>
0

> <r_lp_tautomer_probability>
1

> <s_lp_Force_Field>
OPLS_2005

> <r_lp_Energy>
21.205113

> <b_lp_Chiralities_Consistent>
1

> <s_lp_Variant>
CHEMBL3192_lig572-1

> <s_i_glide_gridfile>
glide-grid_3f07

> <i_i_glide_lignum>
593

> <i_i_glide_rotatable_bonds>
14

> <r_i_docking_score>
-7.71795078581055

> <r_i_glide_ligand_efficiency>
-0.285850029104095

> <r_i_glide_ligand_efficiency_sa>
-0.857550086370169

> <r_i_glide_ligand_efficiency_ln>
-1.79661170257362

> <r_i_glide_gscore>
-7.71795078581055

> <r_i_glide_lipo>
-0.885630728764887

> <r_i_glide_hbond>
-0.561166033993605

> <r_i_glide_metal>
-2.3

> <r_i_glide_rewards>
-0.898872686970564

> <r_i_glide_evdw>
-29.9246578216553

> <r_i_glide_ecoul>
-19.2241764068604

> <r_i_glide_erotb>
1.50287557644993

> <r_i_glide_esite>
-0.19529756041961

> <r_i_glide_emodel>
-75.2058962951844

> <r_i_glide_energy>
-49.1488342285156

> <r_i_glide_einternal>
5.0367169380188

> <i_i_glide_confnum>
50

> <i_i_glide_posenum>
376

> <r_i_glide_eff_state_penalty>
0

> <s_user_duplicate_titles>
CHEMBL3192_lig572

> <s_m_subgroup_title>
dock_pv

> <s_m_subgroupid>
dock_pv

> <b_m_subgroup_collapsed>
1

$$$$
CHEMBL3192_lig542
                    3D
 Schrodinger Suite 2021-1.
 48 50  0  0  1  0            999 V2000
  -28.9629   28.2620  -38.4173 C   0  0  0  0  0  0
  -29.1388   26.9684  -38.7519 C   0  0  0  0  0  0
  -30.0631   26.0744  -38.0994 C   0  0  0  0  0  0
  -30.6939   25.2690  -38.7810 O   0  0  0  0  0  0
  -30.1995   26.2174  -36.7699 N   0  0  0  0  0  0
  -31.0130   25.3071  -36.0884 O   0  0  0  0  0  0
  -28.6132   29.8937  -40.2436 C   0  0  0  0  0  0
  -28.0945   29.1715  -39.1658 C   0  0  0  0  0  0
  -26.7680   29.3692  -38.7817 C   0  0  0  0  0  0
  -27.8124   30.8026  -40.9329 C   0  0  0  0  0  0
  -26.4945   31.0080  -40.5236 C   0  0  0  0  0  0
  -25.9731   30.2935  -39.4524 C   0  0  0  0  0  0
  -24.6590   30.4683  -39.0313 N   0  0  0  0  0  0
  -23.8692   31.2735  -39.6467 C   0  0  0  0  0  0
  -24.3169   32.0544  -40.7173 N   0  0  0  0  0  0
  -25.6088   32.0180  -41.2149 C   0  0  0  0  0  0
  -26.0329   32.7318  -42.1292 O   0  0  0  0  0  0
  -22.3989   31.3486  -39.1805 C   0  0  0  0  0  0
  -22.1122   30.7207  -37.7939 C   0  0  0  0  0  0
  -23.4335   33.0363  -41.4056 C   0  0  0  0  0  0
  -22.5658   32.4572  -42.5485 C   0  0  0  0  0  0
  -23.3533   32.0935  -43.8013 C   0  0  0  0  0  0
  -23.8617   30.8029  -43.9511 C   0  0  0  0  0  0
  -24.6087   30.4691  -45.0760 C   0  0  0  0  0  0
  -24.8397   31.4297  -46.0576 C   0  0  0  0  0  0
  -24.3289   32.7189  -45.9211 C   0  0  0  0  0  0
  -23.5859   33.0530  -44.7908 C   0  0  0  0  0  0
  -25.5674   31.1091  -47.1510 F   0  0  0  0  0  0
  -29.4843   28.7025  -37.5788 H   0  0  0  0  0  0
  -28.5933   26.5423  -39.5810 H   0  0  0  0  0  0
  -29.6642   26.8230  -36.1568 H   0  0  0  0  0  0
  -30.3864   24.7367  -35.6332 H   0  0  0  0  0  0
  -29.6378   29.7483  -40.5549 H   0  0  0  0  0  0
  -26.3394   28.7965  -37.9805 H   0  0  0  0  0  0
  -28.2130   31.3312  -41.7807 H   0  0  0  0  0  0
  -21.7669   30.8694  -39.9270 H   0  0  0  0  0  0
  -22.0639   32.3813  -39.1192 H   0  0  0  0  0  0
  -21.0446   30.7323  -37.5743 H   0  0  0  0  0  0
  -22.6133   31.2690  -36.9976 H   0  0  0  0  0  0
  -22.4531   29.6889  -37.7232 H   0  0  0  0  0  0
  -23.9584   33.9309  -41.7489 H   0  0  0  0  0  0
  -22.7549   33.4507  -40.6635 H   0  0  0  0  0  0
  -21.8297   33.2097  -42.8352 H   0  0  0  0  0  0
  -21.9611   31.6175  -42.2044 H   0  0  0  0  0  0
  -23.6978   30.0692  -43.1810 H   0  0  0  0  0  0
  -25.0138   29.4740  -45.1814 H   0  0  0  0  0  0
  -24.5146   33.4565  -46.6874 H   0  0  0  0  0  0
  -23.2007   34.0565  -44.6814 H   0  0  0  0  0  0
  1  2  2  0  0  0
  1  8  1  0  0  0
  1 29  1  0  0  0
  2  3  1  0  0  0
  2 30  1  0  0  0
  3  4  2  0  0  0
  3  5  1  0  0  0
  5  6  1  0  0  0
  5 31  1  0  0  0
  6 32  1  0  0  0
  7  8  2  0  0  0
  7 10  1  0  0  0
  7 33  1  0  0  0
  8  9  1  0  0  0
  9 12  2  0  0  0
  9 34  1  0  0  0
 10 11  2  0  0  0
 10 35  1  0  0  0
 11 12  1  0  0  0
 11 16  1  0  0  0
 12 13  1  0  0  0
 13 14  2  0  0  0
 14 15  1  0  0  0
 14 18  1  0  0  0
 15 16  1  0  0  0
 15 20  1  0  0  0
 16 17  2  0  0  0
 18 19  1  0  0  0
 18 36  1  0  0  0
 18 37  1  0  0  0
 19 38  1  0  0  0
 19 39  1  0  0  0
 19 40  1  0  0  0
 20 21  1  0  0  0
 20 41  1  0  0  0
 20 42  1  0  0  0
 21 22  1  0  0  0
 21 43  1  0  0  0
 21 44  1  0  0  0
 22 23  2  0  0  0
 22 27  1  0  0  0
 23 24  1  0  0  0
 23 45  1  0  0  0
 24 25  2  0  0  0
 24 46  1  0  0  0
 25 26  1  0  0  0
 25 28  1  0  0  0
 26 27  2  0  0  0
 26 47  1  0  0  0
 27 48  1  0  0  0
M  END
> <s_m_entry_id>
52953

> <s_m_entry_name>
dock_pv.172

> <s_m_Source_Path>
/home/csk/Desktop/cluster/DUD-E-result/hdac8

> <s_m_Source_File>
dock_pv.maegz

> <i_m_Source_File_Index>
172

> <chembl_id>
CHEMBL2425966

> <chembl_pref_name>
None

> <i_lp_mmshare_version>
53161

> <i_f3d_flags>
0

> <r_lp_tautomer_probability>
1

> <s_lp_Force_Field>
OPLS_2005

> <r_lp_Energy>
37.103063

> <b_lp_Chiralities_Consistent>
1

> <s_lp_Variant>
CHEMBL3192_lig542-1

> <s_i_glide_gridfile>
glide-grid_3f07

> <i_i_glide_lignum>
563

> <i_i_glide_rotatable_bonds>
8

> <r_i_docking_score>
-7.71416898658233

> <r_i_glide_ligand_efficiency>
-0.275506035235083

> <r_i_glide_ligand_efficiency_sa>
-0.836598587350802

> <r_i_glide_ligand_efficiency_ln>
-1.78065669994659

> <r_i_glide_gscore>
-7.71416898658233

> <r_i_glide_lipo>
-1.32357851803741

> <r_i_glide_hbond>
-0.298729530206843

> <r_i_glide_metal>
-2.3

> <r_i_glide_rewards>
-1.05573366018643

> <r_i_glide_evdw>
-39.840747833252

> <r_i_glide_ecoul>
-9.2252197265625

> <r_i_glide_erotb>
0.800626841151871

> <r_i_glide_esite>
-0.160933768656547

> <r_i_glide_emodel>
-67.4068435873638

> <r_i_glide_energy>
-49.0659675598145

> <r_i_glide_einternal>
9.42550468444824

> <i_i_glide_confnum>
17

> <i_i_glide_posenum>
46

> <r_i_glide_eff_state_penalty>
0

> <s_user_duplicate_titles>
CHEMBL3192_lig542

> <s_m_subgroup_title>
dock_pv

> <s_m_subgroupid>
dock_pv

> <b_m_subgroup_collapsed>
1

$$$$
CHEMBL3192_lig791
                    3D
 Schrodinger Suite 2021-1.
 37 39  0  0  1  0            999 V2000
  -30.9144   25.1591  -36.0822 O   0  0  0  0  0  0
  -30.2130   26.1116  -36.8354 N   0  0  0  0  0  0
  -30.3223   26.0690  -38.1757 C   0  0  0  0  0  0
  -31.0130   25.2596  -38.7810 O   0  0  0  0  0  0
  -29.6497   27.1002  -38.9353 C   0  0  0  0  0  0
  -28.5490   27.7649  -38.5290 C   0  0  0  0  0  0
  -27.8717   28.8665  -39.2453 C   0  0  0  0  0  0
  -28.4250   29.5395  -40.3456 C   0  0  0  0  0  0
  -27.7454   30.5605  -41.0200 C   0  0  0  0  0  0
  -26.4856   30.9163  -40.5245 C   0  0  0  0  0  0
  -25.9160   30.2686  -39.4051 C   0  0  0  0  0  0
  -26.6113   29.2347  -38.7810 C   0  0  0  0  0  0
  -24.6840   30.7708  -39.0941 N   0  0  0  0  0  0
  -24.4946   31.7048  -39.9859 C   0  0  0  0  0  0
  -25.5297   31.8473  -40.8863 N   0  0  0  0  0  0
  -25.5584   32.7587  -42.0199 C   0  0  0  0  0  0
  -25.1480   32.0881  -43.3239 C   0  0  0  0  0  0
  -26.1060   31.7920  -44.2976 C   0  0  0  0  0  0
  -25.7157   31.2002  -45.4962 C   0  0  0  0  0  0
  -24.3710   30.9057  -45.7149 C   0  0  0  0  0  0
  -23.4130   31.1816  -44.7424 C   0  0  0  0  0  0
  -23.8030   31.7740  -43.5448 C   0  0  0  0  0  0
  -31.5953   25.6718  -35.6373 H   0  0  0  0  0  0
  -29.6729   26.7574  -36.2708 H   0  0  0  0  0  0
  -30.0852   27.3132  -39.8989 H   0  0  0  0  0  0
  -28.1040   27.4979  -37.5810 H   0  0  0  0  0  0
  -29.4051   29.2690  -40.7072 H   0  0  0  0  0  0
  -28.1758   31.0445  -41.8815 H   0  0  0  0  0  0
  -26.1423   28.6976  -37.9810 H   0  0  0  0  0  0
  -23.6229   32.3412  -40.0548 H   0  0  0  0  0  0
  -26.5582   33.1890  -42.0936 H   0  0  0  0  0  0
  -24.8866   33.5945  -41.8148 H   0  0  0  0  0  0
  -27.1480   32.0258  -44.1345 H   0  0  0  0  0  0
  -26.4511   30.9798  -46.2563 H   0  0  0  0  0  0
  -24.0644   30.4690  -46.6528 H   0  0  0  0  0  0
  -22.3720   30.9504  -44.9215 H   0  0  0  0  0  0
  -23.0589   31.9974  -42.7937 H   0  0  0  0  0  0
  1  2  1  0  0  0
  1 23  1  0  0  0
  2  3  1  0  0  0
  2 24  1  0  0  0
  3  4  2  0  0  0
  3  5  1  0  0  0
  5  6  2  0  0  0
  5 25  1  0  0  0
  6  7  1  0  0  0
  6 26  1  0  0  0
  7  8  2  0  0  0
  7 12  1  0  0  0
  8  9  1  0  0  0
  8 27  1  0  0  0
  9 10  2  0  0  0
  9 28  1  0  0  0
 10 11  1  0  0  0
 10 15  1  0  0  0
 11 12  2  0  0  0
 11 13  1  0  0  0
 12 29  1  0  0  0
 13 14  2  0  0  0
 14 15  1  0  0  0
 14 30  1  0  0  0
 15 16  1  0  0  0
 16 17  1  0  0  0
 16 31  1  0  0  0
 16 32  1  0  0  0
 17 18  2  0  0  0
 17 22  1  0  0  0
 18 19  1  0  0  0
 18 33  1  0  0  0
 19 20  2  0  0  0
 19 34  1  0  0  0
 20 21  1  0  0  0
 20 35  1  0  0  0
 21 22  2  0  0  0
 21 36  1  0  0  0
 22 37  1  0  0  0
M  END
> <s_m_entry_id>
52954

> <s_m_entry_name>
dock_pv.173

> <s_m_Source_Path>
/home/csk/Desktop/cluster/DUD-E-result/hdac8

> <s_m_Source_File>
dock_pv.maegz

> <i_m_Source_File_Index>
173

> <chembl_id>
CHEMBL3648270

> <chembl_pref_name>
None

> <i_lp_mmshare_version>
53161

> <i_f3d_flags>
0

> <r_lp_tautomer_probability>
1

> <s_lp_Force_Field>
OPLS_2005

> <r_lp_Energy>
20.460364

> <b_lp_Chiralities_Consistent>
1

> <s_lp_Variant>
CHEMBL3192_lig791-1

> <s_i_glide_gridfile>
glide-grid_3f07

> <i_i_glide_lignum>
843

> <i_i_glide_rotatable_bonds>
6

> <r_i_docking_score>
-7.71310372874779

> <r_i_glide_ligand_efficiency>
-0.35059562403399

> <r_i_glide_ligand_efficiency_sa>
-0.982382726686715

> <r_i_glide_ligand_efficiency_ln>
-1.88536389360031

> <r_i_glide_gscore>
-7.71310372874779

> <r_i_glide_lipo>
-1.42929508152565

> <r_i_glide_hbond>
-0.234932953283007

> <r_i_glide_metal>
-2.3

> <r_i_glide_rewards>
-1.65618839260411

> <r_i_glide_evdw>
-35.4018516540527

> <r_i_glide_ecoul>
-8.01446056365967

> <r_i_glide_erotb>
1.06181447225479

> <r_i_glide_esite>
-0.182240106338224

> <r_i_glide_emodel>
-65.2421602339643

> <r_i_glide_energy>
-43.4163122177124

> <r_i_glide_einternal>
3.4853081703186

> <i_i_glide_confnum>
32

> <i_i_glide_posenum>
34

> <r_i_glide_eff_state_penalty>
0

> <s_user_duplicate_titles>
CHEMBL3192_lig791

> <s_m_subgroup_title>
dock_pv

> <s_m_subgroupid>
dock_pv

> <b_m_subgroup_collapsed>
1

$$$$
CHEMBL3192_lig675
                    3D
 Schrodinger Suite 2021-1.
 45 48  0  0  1  0            999 V2000
  -30.4322   25.6690  -37.1374 O   0  0  0  0  0  0
  -29.4227   26.5762  -37.5073 N   0  0  0  0  0  0
  -29.4130   27.0642  -38.7526 C   0  0  0  0  0  0
  -30.2457   26.7065  -39.5810 O   0  0  0  0  0  0
  -28.4243   28.1673  -39.0540 C   0  0  0  0  0  0
  -27.2139   28.2178  -38.3810 C   0  0  0  0  0  0
  -26.3177   29.2690  -38.5401 C   0  0  0  0  0  0
  -26.5869   30.2735  -39.4451 C   0  0  0  0  0  0
  -25.6374   31.3035  -39.5894 N   0  0  0  0  0  0
  -26.0046   32.4823  -40.3810 C   0  0  0  0  0  0
  -26.8245   32.0942  -41.6315 C   0  0  2  0  0  0
  -28.0868   31.3378  -41.1626 C   0  0  0  0  0  0
  -27.7871   30.2413  -40.1744 C   0  0  0  0  0  0
  -28.6927   29.1874  -39.9738 C   0  0  0  0  0  0
  -26.0064   31.2341  -42.4939 N   0  0  0  0  0  0
  -25.8989   31.4018  -43.8798 C   0  0  0  0  0  0
  -24.9214   30.6749  -44.4764 N   0  0  0  0  0  0
  -24.7504   30.8690  -45.8079 C   0  0  0  0  0  0
  -25.5584   31.7281  -46.5522 C   0  0  0  0  0  0
  -26.5654   32.4222  -45.8672 C   0  0  0  0  0  0
  -26.7262   32.2711  -44.5220 N   0  0  0  0  0  0
  -27.4792   33.3868  -46.5501 C   0  0  0  0  0  0
  -27.7836   33.2690  -47.9162 C   0  0  0  0  0  0
  -28.6130   34.2019  -48.5393 C   0  0  0  0  0  0
  -29.1377   35.2413  -47.7722 C   0  0  0  0  0  0
  -28.8824   35.3781  -46.4482 N   0  0  0  0  0  0
  -28.0682   34.4626  -45.8646 C   0  0  0  0  0  0
  -30.9855   26.1739  -36.5333 H   0  0  0  0  0  0
  -28.8424   26.8690  -36.7255 H   0  0  0  0  0  0
  -26.9924   27.4479  -37.6583 H   0  0  0  0  0  0
  -25.3929   29.2743  -37.9814 H   0  0  0  0  0  0
  -25.0125   31.5116  -38.8215 H   0  0  0  0  0  0
  -26.5734   33.1618  -39.7442 H   0  0  0  0  0  0
  -25.0976   33.0261  -40.6496 H   0  0  0  0  0  0
  -27.1307   32.9894  -42.1743 H   0  0  0  0  0  0
  -28.6130   30.8690  -41.9810 H   0  0  0  0  0  0
  -28.7750   32.0429  -40.6993 H   0  0  0  0  0  0
  -29.6228   29.1878  -40.5248 H   0  0  0  0  0  0
  -25.4511   30.5219  -42.0426 H   0  0  0  0  0  0
  -23.9483   30.3181  -46.2759 H   0  0  0  0  0  0
  -25.3900   31.8599  -47.6101 H   0  0  0  0  0  0
  -27.3879   32.4537  -48.5034 H   0  0  0  0  0  0
  -28.8537   34.1133  -49.5883 H   0  0  0  0  0  0
  -29.7955   35.9752  -48.2143 H   0  0  0  0  0  0
  -27.8772   34.6207  -44.8133 H   0  0  0  0  0  0
  1  2  1  0  0  0
  1 28  1  0  0  0
  2  3  1  0  0  0
  2 29  1  0  0  0
  3  4  2  0  0  0
  3  5  1  0  0  0
  5  6  2  0  0  0
  5 14  1  0  0  0
  6  7  1  0  0  0
  6 30  1  0  0  0
  7  8  2  0  0  0
  7 31  1  0  0  0
  8  9  1  0  0  0
  8 13  1  0  0  0
  9 10  1  0  0  0
  9 32  1  0  0  0
 10 11  1  0  0  0
 10 33  1  0  0  0
 10 34  1  0  0  0
 11 12  1  0  0  0
 11 15  1  0  0  0
 11 35  1  0  0  0
 12 13  1  0  0  0
 12 36  1  0  0  0
 12 37  1  0  0  0
 13 14  2  0  0  0
 14 38  1  0  0  0
 15 16  1  0  0  0
 15 39  1  0  0  0
 16 17  2  0  0  0
 16 21  1  0  0  0
 17 18  1  0  0  0
 18 19  2  0  0  0
 18 40  1  0  0  0
 19 20  1  0  0  0
 19 41  1  0  0  0
 20 21  2  0  0  0
 20 22  1  0  0  0
 22 23  2  0  0  0
 22 27  1  0  0  0
 23 24  1  0  0  0
 23 42  1  0  0  0
 24 25  2  0  0  0
 24 43  1  0  0  0
 25 26  1  0  0  0
 25 44  1  0  0  0
 26 27  2  0  0  0
 27 45  1  0  0  0
M  END
> <s_m_entry_id>
52955

> <s_m_entry_name>
dock_pv.174

> <s_m_Source_Path>
/home/csk/Desktop/cluster/DUD-E-result/hdac8

> <s_m_Source_File>
dock_pv.maegz

> <i_m_Source_File_Index>
174

> <chembl_id>
CHEMBL3415445

> <chembl_pref_name>
None

> <i_lp_mmshare_version>
53161

> <i_f3d_flags>
0

> <r_lp_tautomer_probability>
0.999999987636

> <s_lp_Force_Field>
OPLS_2005

> <r_lp_Energy>
25.599364

> <b_lp_Chiralities_Consistent>
1

> <s_lp_Variant>
CHEMBL3192_lig675-1

> <s_i_glide_gridfile>
glide-grid_3f07

> <i_i_glide_lignum>
701

> <i_i_glide_rotatable_bonds>
6

> <r_i_docking_score>
-7.7098543939639

> <r_i_glide_ligand_efficiency>
-0.285550162739404

> <r_i_glide_ligand_efficiency_sa>
-0.856650487277084

> <r_i_glide_ligand_efficiency_ln>
-1.79472699603117

> <r_i_glide_gscore>
-7.7098543939639

> <r_i_glide_lipo>
-1.22796255199367

> <r_i_glide_hbond>
-0.608

> <r_i_glide_metal>
-2.3

> <r_i_glide_rewards>
-1.21318762131802

> <r_i_glide_evdw>
-22.5904788970947

> <r_i_glide_ecoul>
-11.5580615997314

> <r_i_glide_erotb>
0.731074555090421

> <r_i_glide_esite>
-0.228545590928171

> <r_i_glide_emodel>
-50.2325646779559

> <r_i_glide_energy>
-34.1485404968262

> <r_i_glide_einternal>
4.58916091918945

> <i_i_glide_confnum>
28

> <i_i_glide_posenum>
336

> <r_i_glide_eff_state_penalty>
0

> <s_user_duplicate_titles>
CHEMBL3192_lig675

> <s_m_subgroup_title>
dock_pv

> <s_m_subgroupid>
dock_pv

> <b_m_subgroup_collapsed>
1

$$$$
CHEMBL3192_lig270
                    3D
 Schrodinger Suite 2021-1.
 55 57  0  0  1  0            999 V2000
  -25.4751   32.6503  -42.6405 N   0  0  0  0  0  0
  -25.4322   30.5244  -43.3724 N   0  0  0  0  0  0
  -25.1127   31.3168  -44.3713 C   0  0  0  0  0  0
  -25.1423   32.6569  -43.9915 C   0  0  0  0  0  0
  -25.6213   31.3033  -42.3385 C   0  0  0  0  0  0
  -25.9682   30.7347  -41.0056 C   0  0  0  0  0  0
  -25.1851   31.0113  -39.8819 C   0  0  0  0  0  0
  -25.5181   30.4690  -38.6469 C   0  0  0  0  0  0
  -26.6130   29.6146  -38.5368 C   0  0  0  0  0  0
  -27.3882   29.2913  -39.6516 C   0  0  0  0  0  0
  -27.0612   29.8694  -40.8828 C   0  0  0  0  0  0
  -28.5080   28.3358  -39.5691 C   0  0  0  0  0  0
  -28.6853   27.3845  -38.6199 C   0  0  0  0  0  0
  -29.8130   26.4812  -38.6384 C   0  0  0  0  0  0
  -29.9423   25.7009  -37.5548 N   0  0  0  0  0  0
  -30.6130   26.4690  -39.5810 O   0  0  0  0  0  0
  -30.9971   24.7727  -37.5205 O   0  0  0  0  0  0
  -24.7832   30.7060  -45.7131 C   0  0  0  0  0  0
  -24.8759   33.8881  -44.8323 C   0  0  0  0  0  0
  -25.7192   33.7730  -41.6944 C   0  0  2  0  0  0
  -27.2247   34.0727  -41.5492 C   0  0  0  0  0  0
  -27.6870   35.0784  -42.6047 C   0  0  0  0  0  0
  -26.8300   36.3583  -42.5543 C   0  0  0  0  0  0
  -25.3952   36.0914  -42.7365 N   0  0  2  0  0  0
  -24.8375   35.0390  -41.8620 C   0  0  0  0  0  0
  -24.6341   37.3446  -42.6799 C   0  0  0  0  0  0
  -23.1887   37.1899  -43.1834 C   0  0  0  0  0  0
  -24.3123   31.6445  -39.9559 H   0  0  0  0  0  0
  -24.9150   30.7050  -37.7827 H   0  0  0  0  0  0
  -26.8594   29.1902  -37.5810 H   0  0  0  0  0  0
  -27.6498   29.6432  -41.7601 H   0  0  0  0  0  0
  -29.2398   28.4501  -40.3571 H   0  0  0  0  0  0
  -27.9786   27.2683  -37.8114 H   0  0  0  0  0  0
  -29.3413   25.6534  -36.7434 H   0  0  0  0  0  0
  -30.5500   23.9171  -37.5811 H   0  0  0  0  0  0
  -24.1843   31.3710  -46.3351 H   0  0  0  0  0  0
  -24.2141   29.7821  -45.6017 H   0  0  0  0  0  0
  -25.6872   30.4688  -46.2740 H   0  0  0  0  0  0
  -24.6632   33.6327  -45.8697 H   0  0  0  0  0  0
  -25.7290   34.5628  -44.8619 H   0  0  0  0  0  0
  -24.0127   34.4485  -44.4773 H   0  0  0  0  0  0
  -25.4278   33.3856  -40.7231 H   0  0  0  0  0  0
  -27.8131   33.1546  -41.5779 H   0  0  0  0  0  0
  -27.4063   34.4773  -40.5516 H   0  0  0  0  0  0
  -27.6686   34.6461  -43.6054 H   0  0  0  0  0  0
  -28.7295   35.3411  -42.4249 H   0  0  0  0  0  0
  -27.1678   37.0531  -43.3251 H   0  0  0  0  0  0
  -26.9767   36.8677  -41.5995 H   0  0  0  0  0  0
  -24.7283   35.4895  -40.8727 H   0  0  0  0  0  0
  -23.8296   34.7648  -42.1734 H   0  0  0  0  0  0
  -25.1248   38.0856  -43.3134 H   0  0  0  0  0  0
  -24.6406   37.7479  -41.6654 H   0  0  0  0  0  0
  -22.6974   38.1605  -43.2403 H   0  0  0  0  0  0
  -22.5869   36.5668  -42.5225 H   0  0  0  0  0  0
  -23.1615   36.7511  -44.1810 H   0  0  0  0  0  0
  1  4  1  0  0  0
  1  5  1  0  0  0
  1 20  1  0  0  0
  2  3  1  0  0  0
  2  5  2  0  0  0
  3  4  2  0  0  0
  3 18  1  0  0  0
  4 19  1  0  0  0
  5  6  1  0  0  0
  6  7  2  0  0  0
  6 11  1  0  0  0
  7  8  1  0  0  0
  7 28  1  0  0  0
  8  9  2  0  0  0
  8 29  1  0  0  0
  9 10  1  0  0  0
  9 30  1  0  0  0
 10 11  2  0  0  0
 10 12  1  0  0  0
 11 31  1  0  0  0
 12 13  2  0  0  0
 12 32  1  0  0  0
 13 14  1  0  0  0
 13 33  1  0  0  0
 14 15  1  0  0  0
 14 16  2  0  0  0
 15 17  1  0  0  0
 15 34  1  0  0  0
 17 35  1  0  0  0
 18 36  1  0  0  0
 18 37  1  0  0  0
 18 38  1  0  0  0
 19 39  1  0  0  0
 19 40  1  0  0  0
 19 41  1  0  0  0
 20 21  1  0  0  0
 20 25  1  0  0  0
 20 42  1  0  0  0
 21 22  1  0  0  0
 21 43  1  0  0  0
 21 44  1  0  0  0
 22 23  1  0  0  0
 22 45  1  0  0  0
 22 46  1  0  0  0
 23 24  1  0  0  0
 23 47  1  0  0  0
 23 48  1  0  0  0
 24 25  1  0  0  0
 24 26  1  0  0  0
 25 49  1  0  0  0
 25 50  1  0  0  0
 26 27  1  0  0  0
 26 51  1  0  0  0
 26 52  1  0  0  0
 27 53  1  0  0  0
 27 54  1  0  0  0
 27 55  1  0  0  0
M  END
> <s_m_entry_id>
52956

> <s_m_entry_name>
dock_pv.175

> <s_m_Source_Path>
/home/csk/Desktop/cluster/DUD-E-result/hdac8

> <s_m_Source_File>
dock_pv.maegz

> <i_m_Source_File_Index>
175

> <chembl_id>
CHEMBL1096033

> <chembl_pref_name>
None

> <i_lp_mmshare_version>
53161

> <i_f3d_flags>
0

> <r_lp_tautomer_probability>
1

> <s_lp_Force_Field>
OPLS_2005

> <r_lp_Energy>
39.599493

> <b_lp_Chiralities_Consistent>
1

> <s_lp_Variant>
CHEMBL3192_lig270-1

> <s_i_glide_gridfile>
glide-grid_3f07

> <i_i_glide_lignum>
283

> <i_i_glide_rotatable_bonds>
7

> <r_i_docking_score>
-7.70833535688076

> <r_i_glide_ligand_efficiency>
-0.285493902106695

> <r_i_glide_ligand_efficiency_sa>
-0.856481705379144

> <r_i_glide_ligand_efficiency_ln>
-1.7943733892415

> <r_i_glide_gscore>
-7.70833535688076

> <r_i_glide_lipo>
-1.16596740799381

> <r_i_glide_hbond>
-0.306993168268173

> <r_i_glide_metal>
-2.3

> <r_i_glide_rewards>
-1.07170463325114

> <r_i_glide_evdw>
-26.6201019287109

> <r_i_glide_ecoul>
-13.9648408889771

> <r_i_glide_erotb>
0.709653996349162

> <r_i_glide_esite>
-0.147592913934697

> <r_i_glide_emodel>
-64.0371565380157

> <r_i_glide_energy>
-40.584942817688

> <r_i_glide_einternal>
3.99243092536926

> <i_i_glide_confnum>
86

> <i_i_glide_posenum>
18

> <r_i_glide_eff_state_penalty>
0

> <s_user_duplicate_titles>
CHEMBL3192_lig270,625973

> <s_m_subgroup_title>
dock_pv

> <s_m_subgroupid>
dock_pv

> <b_m_subgroup_collapsed>
1

$$$$
CHEMBL3192_lig126
                    3D
 Schrodinger Suite 2021-1.
 50 53  0  0  1  0            999 V2000
  -27.1037   34.0724  -44.1245 C   0  0  0  0  0  0
  -27.5639   35.2093  -43.4605 C   0  0  0  0  0  0
  -27.5157   35.2742  -42.0680 C   0  0  0  0  0  0
  -27.0166   34.1985  -41.3332 C   0  0  0  0  0  0
  -26.5920   32.9995  -43.3944 C   0  0  0  0  0  0
  -26.5421   33.0542  -41.9902 C   0  0  0  0  0  0
  -26.0902   31.9069  -41.3333 N   0  0  0  0  0  0
  -25.1093   31.0067  -42.0096 C   0  0  1  0  0  0
  -25.4380   30.8452  -43.5348 C   0  0  0  0  0  0
  -26.1225   31.8726  -44.0710 N   0  0  0  0  0  0
  -26.1759   31.6305  -39.8935 C   0  0  0  0  0  0
  -27.0342   30.4039  -39.6055 C   0  0  0  0  0  0
  -28.2519   30.2082  -40.2597 C   0  0  0  0  0  0
  -29.0133   29.0805  -39.9810 C   0  0  0  0  0  0
  -28.5895   28.1374  -39.0367 C   0  0  0  0  0  0
  -27.3766   28.3510  -38.3815 C   0  0  0  0  0  0
  -26.6032   29.4727  -38.6661 C   0  0  0  0  0  0
  -25.1626   29.8434  -44.1929 O   0  0  0  0  0  0
  -29.4368   26.9237  -38.7358 C   0  0  0  0  0  0
  -29.4312   26.4691  -37.4799 N   0  0  0  0  0  0
  -30.2130   26.4691  -39.5808 O   0  0  0  0  0  0
  -30.2132   25.3376  -37.1739 O   0  0  0  0  0  0
  -23.6068   31.4037  -41.8472 C   0  0  0  0  0  0
  -23.2987   32.8972  -41.9406 C   0  0  0  0  0  0
  -23.0371   33.4849  -43.1820 C   0  0  0  0  0  0
  -22.7889   35.6260  -42.1025 C   0  0  0  0  0  0
  -23.0396   35.0446  -40.8614 C   0  0  0  0  0  0
  -22.7831   34.8518  -43.2618 C   0  0  0  0  0  0
  -23.2891   33.6790  -40.7814 C   0  0  0  0  0  0
  -27.1400   34.0367  -45.2041 H   0  0  0  0  0  0
  -27.9489   36.0435  -44.0272 H   0  0  0  0  0  0
  -27.8563   36.1631  -41.5565 H   0  0  0  0  0  0
  -26.9776   34.2841  -40.2583 H   0  0  0  0  0  0
  -25.2233   29.9924  -41.6226 H   0  0  0  0  0  0
  -26.2795   31.7898  -45.0636 H   0  0  0  0  0  0
  -26.6118   32.4619  -39.3449 H   0  0  0  0  0  0
  -25.1750   31.5053  -39.4780 H   0  0  0  0  0  0
  -28.5984   30.9195  -40.9939 H   0  0  0  0  0  0
  -29.9464   28.9545  -40.5099 H   0  0  0  0  0  0
  -27.0135   27.6411  -37.6538 H   0  0  0  0  0  0
  -25.6594   29.6119  -38.1584 H   0  0  0  0  0  0
  -28.8965   26.8223  -36.6903 H   0  0  0  0  0  0
  -29.5774   24.6127  -37.1525 H   0  0  0  0  0  0
  -22.9722   30.8693  -42.5568 H   0  0  0  0  0  0
  -23.2553   31.0527  -40.8748 H   0  0  0  0  0  0
  -23.0402   32.8862  -44.0817 H   0  0  0  0  0  0
  -22.5954   36.6862  -42.1650 H   0  0  0  0  0  0
  -23.0433   35.6420  -39.9602 H   0  0  0  0  0  0
  -22.5837   35.3105  -44.2184 H   0  0  0  0  0  0
  -23.4886   33.2378  -39.8148 H   0  0  0  0  0  0
  1  5  1  0  0  0
  1  2  2  0  0  0
  1 30  1  0  0  0
  2  3  1  0  0  0
  2 31  1  0  0  0
  3  4  2  0  0  0
  3 32  1  0  0  0
  4  6  1  0  0  0
  4 33  1  0  0  0
  5 10  1  0  0  0
  5  6  2  0  0  0
  6  7  1  0  0  0
  7  8  1  0  0  0
  7 11  1  0  0  0
  8  9  1  0  0  0
  8 23  1  0  0  0
  8 34  1  0  0  0
  9 18  2  0  0  0
  9 10  1  0  0  0
 10 35  1  0  0  0
 11 12  1  0  0  0
 11 36  1  0  0  0
 11 37  1  0  0  0
 12 17  1  0  0  0
 12 13  2  0  0  0
 13 14  1  0  0  0
 13 38  1  0  0  0
 14 15  2  0  0  0
 14 39  1  0  0  0
 15 16  1  0  0  0
 15 19  1  0  0  0
 16 17  2  0  0  0
 16 40  1  0  0  0
 17 41  1  0  0  0
 19 20  1  0  0  0
 19 21  2  0  0  0
 20 22  1  0  0  0
 20 42  1  0  0  0
 22 43  1  0  0  0
 23 24  1  0  0  0
 23 44  1  0  0  0
 23 45  1  0  0  0
 24 25  2  0  0  0
 24 29  1  0  0  0
 25 28  1  0  0  0
 25 46  1  0  0  0
 26 27  1  0  0  0
 26 28  2  0  0  0
 26 47  1  0  0  0
 27 29  2  0  0  0
 27 48  1  0  0  0
 28 49  1  0  0  0
 29 50  1  0  0  0
M  END
> <s_m_entry_id>
52957

> <s_m_entry_name>
dock_pv.176

> <s_m_Source_Path>
/home/csk/Desktop/cluster/DUD-E-result/hdac8

> <s_m_Source_File>
dock_pv.maegz

> <i_m_Source_File_Index>
176

> <chembl_id>
CHEMBL479842

> <chembl_pref_name>
None

> <i_lp_mmshare_version>
53161

> <i_f3d_flags>
0

> <r_lp_tautomer_probability>
1

> <s_lp_Force_Field>
OPLS_2005

> <r_lp_Energy>
38.029355

> <b_lp_Chiralities_Consistent>
1

> <s_lp_Variant>
CHEMBL3192_lig126-1

> <s_i_glide_gridfile>
glide-grid_3f07

> <i_i_glide_lignum>
135

> <i_i_glide_rotatable_bonds>
7

> <r_i_docking_score>
-7.70057556841292

> <r_i_glide_ligand_efficiency>
-0.265537088565963

> <r_i_glide_ligand_efficiency_sa>
-0.815814064129144

> <r_i_glide_ligand_efficiency_ln>
-1.76323653541848

> <r_i_glide_gscore>
-7.70057556841292

> <r_i_glide_lipo>
-0.902520673204318

> <r_i_glide_hbond>
-0.606155239820193

> <r_i_glide_metal>
-2.3

> <r_i_glide_rewards>
-1.04261429079709

> <r_i_glide_evdw>
-24.627758026123

> <r_i_glide_ecoul>
-14.5720491409302

> <r_i_glide_erotb>
0.77841203019939

> <r_i_glide_esite>
-0.21050212234503

> <r_i_glide_emodel>
-61.4490805068186

> <r_i_glide_energy>
-39.1998071670532

> <r_i_glide_einternal>
1.11454057693481

> <i_i_glide_confnum>
11

> <i_i_glide_posenum>
151

> <r_i_glide_eff_state_penalty>
0

> <s_user_duplicate_titles>
CHEMBL3192_lig126,473679

> <s_m_subgroup_title>
dock_pv

> <s_m_subgroupid>
dock_pv

> <b_m_subgroup_collapsed>
1

$$$$
CHEMBL3192_lig545
                    3D
 Schrodinger Suite 2021-1.
 48 50  0  0  1  0            999 V2000
  -29.0067   28.3439  -38.4188 C   0  0  0  0  0  0
  -29.1230   27.0398  -38.7472 C   0  0  0  0  0  0
  -30.0262   26.1140  -38.1043 C   0  0  0  0  0  0
  -30.6130   25.2690  -38.7810 O   0  0  0  0  0  0
  -30.1972   26.2755  -36.7807 N   0  0  0  0  0  0
  -31.0130   25.3628  -36.1029 O   0  0  0  0  0  0
  -28.6445   30.1037  -40.1399 C   0  0  0  0  0  0
  -28.1306   29.2824  -39.1300 C   0  0  0  0  0  0
  -26.7916   29.4136  -38.7581 C   0  0  0  0  0  0
  -27.8242   31.0346  -40.7811 C   0  0  0  0  0  0
  -26.4898   31.1563  -40.3935 C   0  0  0  0  0  0
  -25.9762   30.3529  -39.3835 C   0  0  0  0  0  0
  -24.6538   30.4654  -38.9683 N   0  0  0  0  0  0
  -23.8412   31.2690  -39.5554 C   0  0  0  0  0  0
  -24.2682   32.1065  -40.5901 N   0  0  0  0  0  0
  -25.5723   32.1612  -41.0524 C   0  0  0  0  0  0
  -25.9782   32.9326  -41.9273 O   0  0  0  0  0  0
  -22.3702   31.2786  -39.0834 C   0  0  0  0  0  0
  -23.3380   33.0353  -41.2893 C   0  0  0  0  0  0
  -22.4308   32.3837  -42.3618 C   0  0  0  0  0  0
  -23.1429   31.9984  -43.6548 C   0  0  0  0  0  0
  -23.9536   30.8627  -43.6945 C   0  0  0  0  0  0
  -24.5931   30.4946  -44.8744 C   0  0  0  0  0  0
  -24.4191   31.2689  -46.0189 C   0  0  0  0  0  0
  -23.6126   32.4048  -45.9912 C   0  0  0  0  0  0
  -22.9747   32.7704  -44.8081 C   0  0  0  0  0  0
  -22.1262   30.6808  -37.6760 C   0  0  0  0  0  0
  -29.5717   28.7654  -37.5964 H   0  0  0  0  0  0
  -28.5397   26.6275  -39.5585 H   0  0  0  0  0  0
  -29.6925   26.9060  -36.1665 H   0  0  0  0  0  0
  -30.3886   24.8127  -35.6206 H   0  0  0  0  0  0
  -29.6806   30.0195  -40.4351 H   0  0  0  0  0  0
  -26.3777   28.7920  -37.9811 H   0  0  0  0  0  0
  -28.2131   31.6514  -41.5765 H   0  0  0  0  0  0
  -21.7607   30.7412  -39.8080 H   0  0  0  0  0  0
  -21.9776   32.2918  -39.0471 H   0  0  0  0  0  0
  -23.8157   33.9295  -41.6962 H   0  0  0  0  0  0
  -22.6870   33.4592  -40.5270 H   0  0  0  0  0  0
  -21.6490   33.1014  -42.6149 H   0  0  0  0  0  0
  -21.8833   31.5308  -41.9622 H   0  0  0  0  0  0
  -24.0995   30.2721  -42.8045 H   0  0  0  0  0  0
  -25.2244   29.6184  -44.9013 H   0  0  0  0  0  0
  -24.9173   30.9891  -46.9353 H   0  0  0  0  0  0
  -23.4835   33.0011  -46.8824 H   0  0  0  0  0  0
  -22.3501   33.6516  -44.7921 H   0  0  0  0  0  0
  -21.0617   30.6520  -37.4434 H   0  0  0  0  0  0
  -22.6130   31.2693  -36.9004 H   0  0  0  0  0  0
  -22.5132   29.6692  -37.5811 H   0  0  0  0  0  0
  1  2  2  0  0  0
  1  8  1  0  0  0
  1 28  1  0  0  0
  2  3  1  0  0  0
  2 29  1  0  0  0
  3  4  2  0  0  0
  3  5  1  0  0  0
  5  6  1  0  0  0
  5 30  1  0  0  0
  6 31  1  0  0  0
  7  8  2  0  0  0
  7 10  1  0  0  0
  7 32  1  0  0  0
  8  9  1  0  0  0
  9 12  2  0  0  0
  9 33  1  0  0  0
 10 11  2  0  0  0
 10 34  1  0  0  0
 11 12  1  0  0  0
 11 16  1  0  0  0
 12 13  1  0  0  0
 13 14  2  0  0  0
 14 15  1  0  0  0
 14 18  1  0  0  0
 15 16  1  0  0  0
 15 19  1  0  0  0
 16 17  2  0  0  0
 18 27  1  0  0  0
 18 35  1  0  0  0
 18 36  1  0  0  0
 19 20  1  0  0  0
 19 37  1  0  0  0
 19 38  1  0  0  0
 20 21  1  0  0  0
 20 39  1  0  0  0
 20 40  1  0  0  0
 21 22  2  0  0  0
 21 26  1  0  0  0
 22 23  1  0  0  0
 22 41  1  0  0  0
 23 24  2  0  0  0
 23 42  1  0  0  0
 24 25  1  0  0  0
 24 43  1  0  0  0
 25 26  2  0  0  0
 25 44  1  0  0  0
 26 45  1  0  0  0
 27 46  1  0  0  0
 27 47  1  0  0  0
 27 48  1  0  0  0
M  END
> <s_m_entry_id>
52958

> <s_m_entry_name>
dock_pv.177

> <s_m_Source_Path>
/home/csk/Desktop/cluster/DUD-E-result/hdac8

> <s_m_Source_File>
dock_pv.maegz

> <i_m_Source_File_Index>
177

> <chembl_id>
CHEMBL2425961

> <chembl_pref_name>
None

> <i_lp_mmshare_version>
53161

> <i_f3d_flags>
0

> <r_lp_tautomer_probability>
1

> <s_lp_Force_Field>
OPLS_2005

> <r_lp_Energy>
37.317421

> <b_lp_Chiralities_Consistent>
1

> <s_lp_Variant>
CHEMBL3192_lig545-1

> <s_i_glide_gridfile>
glide-grid_3f07

> <i_i_glide_lignum>
566

> <i_i_glide_rotatable_bonds>
8

> <r_i_docking_score>
-7.70027263216318

> <r_i_glide_ligand_efficiency>
-0.28519528267271

> <r_i_glide_ligand_efficiency_sa>
-0.855585847078174

> <r_i_glide_ligand_efficiency_ln>
-1.79249651985165

> <r_i_glide_gscore>
-7.70027263216318

> <r_i_glide_lipo>
-1.22307539875214

> <r_i_glide_hbond>
-0.311437294772515

> <r_i_glide_metal>
-2.3

> <r_i_glide_rewards>
-1.15119880024677

> <r_i_glide_evdw>
-39.7223320007324

> <r_i_glide_ecoul>
-9.56060123443604

> <r_i_glide_erotb>
0.872882153428892

> <r_i_glide_esite>
-0.167236506618616

> <r_i_glide_emodel>
-71.4422528764881

> <r_i_glide_energy>
-49.2829332351685

> <r_i_glide_einternal>
9.29273796081543

> <i_i_glide_confnum>
13

> <i_i_glide_posenum>
165

> <r_i_glide_eff_state_penalty>
0

> <s_user_duplicate_titles>
CHEMBL3192_lig545

> <s_m_subgroup_title>
dock_pv

> <s_m_subgroupid>
dock_pv

> <b_m_subgroup_collapsed>
1

$$$$
CHEMBL3192_lig999
                    3D
 Schrodinger Suite 2021-1.
 32 33  0  0  1  0            999 V2000
  -25.9866   32.3504  -44.5099 C   0  0  0  0  0  0
  -25.2814   31.3385  -45.1566 C   0  0  0  0  0  0
  -25.1926   30.0690  -44.5942 C   0  0  0  0  0  0
  -25.8201   29.8069  -43.3801 C   0  0  0  0  0  0
  -26.5384   30.8129  -42.7240 C   0  0  0  0  0  0
  -26.6130   32.0891  -43.2930 C   0  0  0  0  0  0
  -27.2209   30.5125  -41.4290 C   0  0  0  0  0  0
  -26.8984   29.3702  -40.7725 O   0  0  0  0  0  0
  -27.6498   29.4553  -39.6490 C   0  0  0  0  0  0
  -28.4146   30.5167  -39.6203 N   0  0  0  0  0  0
  -28.1175   31.2235  -40.7810 N   0  0  0  0  0  0
  -27.4419   28.4209  -38.5753 C   0  0  0  0  0  0
  -28.3416   27.2690  -38.6788 N   0  0  0  0  0  0
  -29.4130   27.1261  -37.8738 C   0  0  0  0  0  0
  -30.0856   25.7500  -37.6463 C   0  0  2  0  0  0
  -29.8130   28.0504  -37.1810 O   0  0  0  0  0  0
  -29.8165   24.8690  -38.7810 N   0  0  0  0  0  0
  -24.6799   31.5874  -46.3411 F   0  0  0  0  0  0
  -31.5846   25.8269  -37.3058 C   0  0  0  0  0  0
  -26.0459   33.3334  -44.9530 H   0  0  0  0  0  0
  -24.6482   29.2898  -45.1066 H   0  0  0  0  0  0
  -25.7608   28.8150  -42.9571 H   0  0  0  0  0  0
  -27.1558   32.8803  -42.7964 H   0  0  0  0  0  0
  -27.4894   28.8867  -37.5886 H   0  0  0  0  0  0
  -26.4178   28.0690  -38.6298 H   0  0  0  0  0  0
  -27.9881   26.4585  -39.1683 H   0  0  0  0  0  0
  -29.5911   25.3195  -36.7746 H   0  0  0  0  0  0
  -28.7990   24.7518  -38.7810 H   0  0  0  0  0  0
  -30.0671   23.9259  -38.4594 H   0  0  0  0  0  0
  -31.7513   26.3826  -36.3814 H   0  0  0  0  0  0
  -32.0094   24.8328  -37.1609 H   0  0  0  0  0  0
  -32.1538   26.3256  -38.0853 H   0  0  0  0  0  0
  1  2  2  0  0  0
  1  6  1  0  0  0
  1 20  1  0  0  0
  2  3  1  0  0  0
  2 18  1  0  0  0
  3  4  2  0  0  0
  3 21  1  0  0  0
  4  5  1  0  0  0
  4 22  1  0  0  0
  5  6  2  0  0  0
  5  7  1  0  0  0
  6 23  1  0  0  0
  7  8  1  0  0  0
  7 11  2  0  0  0
  8  9  1  0  0  0
  9 10  2  0  0  0
  9 12  1  0  0  0
 10 11  1  0  0  0
 12 13  1  0  0  0
 12 24  1  0  0  0
 12 25  1  0  0  0
 13 14  1  0  0  0
 13 26  1  0  0  0
 14 15  1  0  0  0
 14 16  2  0  0  0
 15 17  1  0  0  0
 15 19  1  0  0  0
 15 27  1  0  0  0
 17 28  1  0  0  0
 17 29  1  0  0  0
 19 30  1  0  0  0
 19 31  1  0  0  0
 19 32  1  0  0  0
M  END
> <s_m_entry_id>
52959

> <s_m_entry_name>
dock_pv.178

> <s_m_Source_Path>
/home/csk/Desktop/cluster/DUD-E-result/hdac8

> <s_m_Source_File>
dock_pv.maegz

> <i_m_Source_File_Index>
178

> <chembl_id>
CHEMBL3921280

> <chembl_pref_name>
None

> <i_lp_mmshare_version>
53161

> <i_f3d_flags>
0

> <r_lp_tautomer_probability>
1

> <s_lp_Force_Field>
OPLS_2005

> <r_lp_Energy>
3.794291

> <b_lp_Chiralities_Consistent>
1

> <s_lp_Variant>
CHEMBL3192_lig999-1

> <s_i_glide_gridfile>
glide-grid_3f07

> <i_i_glide_lignum>
1061

> <i_i_glide_rotatable_bonds>
5

> <r_i_docking_score>
-7.69497696475467

> <r_i_glide_ligand_efficiency>
-0.404998787618667

> <r_i_glide_ligand_efficiency_sa>
-1.08069943155135

> <r_i_glide_ligand_efficiency_ln>
-1.95084193351644

> <r_i_glide_gscore>
-7.69497696475467

> <r_i_glide_lipo>
-1.40258848267509

> <r_i_glide_hbond>
-0.562931685489251

> <r_i_glide_metal>
-2.16229118447965

> <r_i_glide_rewards>
-1.78386252722741

> <r_i_glide_evdw>
-10.2980175018311

> <r_i_glide_ecoul>
-14.0737638473511

> <r_i_glide_erotb>
1.01811204088547

> <r_i_glide_esite>
-0.17544967357452

> <r_i_glide_emodel>
-42.9587065153644

> <r_i_glide_energy>
-24.3717813491821

> <r_i_glide_einternal>
10.7079448699951

> <i_i_glide_confnum>
7

> <i_i_glide_posenum>
267

> <r_i_glide_eff_state_penalty>
0

> <s_user_duplicate_titles>
CHEMBL3192_lig999

> <s_m_subgroup_title>
dock_pv

> <s_m_subgroupid>
dock_pv

> <b_m_subgroup_collapsed>
1

$$$$
CHEMBL3192_lig1047
                    3D
 Schrodinger Suite 2021-1.
 47 50  0  0  1  0            999 V2000
  -30.2130   25.3667  -37.2872 O   0  0  0  0  0  0
  -29.4132   26.5023  -37.5256 N   0  0  0  0  0  0
  -29.4129   27.0413  -38.7493 C   0  0  0  0  0  0
  -30.2410   26.6888  -39.5810 O   0  0  0  0  0  0
  -28.4424   28.1687  -39.0305 C   0  0  0  0  0  0
  -27.2326   28.2195  -38.3628 C   0  0  0  0  0  0
  -26.3377   29.2689  -38.5299 C   0  0  0  0  0  0
  -26.5870   30.2857  -39.4308 C   0  0  0  0  0  0
  -25.5235   31.3637  -39.6432 C   0  0  0  0  0  0
  -26.0717   32.5968  -40.3808 C   0  0  0  0  0  0
  -26.9209   32.1947  -41.5933 C   0  0  2  0  0  0
  -28.1272   31.3441  -41.1393 C   0  0  0  0  0  0
  -27.7928   30.2422  -40.1583 C   0  0  0  0  0  0
  -28.7053   29.1922  -39.9487 C   0  0  0  0  0  0
  -26.0987   31.4514  -42.5537 N   0  0  0  0  0  0
  -26.1621   31.6391  -43.9408 C   0  0  0  0  0  0
  -25.3219   30.8668  -44.6715 N   0  0  0  0  0  0
  -25.3423   31.0570  -46.0139 C   0  0  0  0  0  0
  -26.1965   31.9695  -46.6344 C   0  0  0  0  0  0
  -27.0429   32.7313  -45.8132 C   0  0  0  0  0  0
  -27.0129   32.5641  -44.4595 N   0  0  0  0  0  0
  -28.0094   33.7548  -46.3432 C   0  0  0  0  0  0
  -27.9950   34.1525  -47.6917 C   0  0  0  0  0  0
  -28.8826   35.1141  -48.1755 C   0  0  0  0  0  0
  -29.8129   35.7006  -47.3220 C   0  0  0  0  0  0
  -30.6706   36.6300  -47.8034 F   0  0  0  0  0  0
  -29.8555   35.3201  -45.9810 C   0  0  0  0  0  0
  -31.0106   36.0158  -44.9006 Cl  0  0  0  0  0  0
  -28.9612   34.3631  -45.5041 C   0  0  0  0  0  0
  -29.5814   24.6385  -37.2435 H   0  0  0  0  0  0
  -28.8448   26.7751  -36.7286 H   0  0  0  0  0  0
  -27.0044   27.4473  -37.6448 H   0  0  0  0  0  0
  -25.4073   29.2663  -37.9810 H   0  0  0  0  0  0
  -25.0921   31.6688  -38.6884 H   0  0  0  0  0  0
  -24.7022   30.9313  -40.2162 H   0  0  0  0  0  0
  -26.6735   33.1913  -39.6914 H   0  0  0  0  0  0
  -25.2481   33.2463  -40.6823 H   0  0  0  0  0  0
  -27.3041   33.0982  -42.0695 H   0  0  0  0  0  0
  -28.6128   30.8690  -41.9810 H   0  0  0  0  0  0
  -28.8644   31.9966  -40.6745 H   0  0  0  0  0  0
  -29.6357   29.1941  -40.4990 H   0  0  0  0  0  0
  -25.5439   30.6843  -42.2054 H   0  0  0  0  0  0
  -24.6506   30.4690  -46.5956 H   0  0  0  0  0  0
  -26.1817   32.0670  -47.7080 H   0  0  0  0  0  0
  -27.2885   33.7338  -48.3906 H   0  0  0  0  0  0
  -28.8518   35.4046  -49.2150 H   0  0  0  0  0  0
  -29.0183   34.0942  -44.4600 H   0  0  0  0  0  0
  1  2  1  0  0  0
  1 30  1  0  0  0
  2  3  1  0  0  0
  2 31  1  0  0  0
  3  4  2  0  0  0
  3  5  1  0  0  0
  5  6  2  0  0  0
  5 14  1  0  0  0
  6  7  1  0  0  0
  6 32  1  0  0  0
  7  8  2  0  0  0
  7 33  1  0  0  0
  8  9  1  0  0  0
  8 13  1  0  0  0
  9 10  1  0  0  0
  9 34  1  0  0  0
  9 35  1  0  0  0
 10 11  1  0  0  0
 10 36  1  0  0  0
 10 37  1  0  0  0
 11 12  1  0  0  0
 11 15  1  0  0  0
 11 38  1  0  0  0
 12 13  1  0  0  0
 12 39  1  0  0  0
 12 40  1  0  0  0
 13 14  2  0  0  0
 14 41  1  0  0  0
 15 16  1  0  0  0
 15 42  1  0  0  0
 16 17  2  0  0  0
 16 21  1  0  0  0
 17 18  1  0  0  0
 18 19  2  0  0  0
 18 43  1  0  0  0
 19 20  1  0  0  0
 19 44  1  0  0  0
 20 21  2  0  0  0
 20 22  1  0  0  0
 22 23  2  0  0  0
 22 29  1  0  0  0
 23 24  1  0  0  0
 23 45  1  0  0  0
 24 25  2  0  0  0
 24 46  1  0  0  0
 25 26  1  0  0  0
 25 27  1  0  0  0
 27 28  1  0  0  0
 27 29  2  0  0  0
 29 47  1  0  0  0
M  END
> <s_m_entry_id>
52960

> <s_m_entry_name>
dock_pv.179

> <s_m_Source_Path>
/home/csk/Desktop/cluster/DUD-E-result/hdac8

> <s_m_Source_File>
dock_pv.maegz

> <i_m_Source_File_Index>
179

> <chembl_id>
CHEMBL3694296

> <chembl_pref_name>
None

> <i_lp_mmshare_version>
53161

> <i_f3d_flags>
0

> <r_lp_tautomer_probability>
0.999999987636

> <s_lp_Force_Field>
OPLS_2005

> <r_lp_Energy>
21.46841

> <b_lp_Chiralities_Consistent>
1

> <s_lp_Variant>
CHEMBL3192_lig1047-1

> <s_i_glide_gridfile>
glide-grid_3f07

> <i_i_glide_lignum>
1133

> <i_i_glide_rotatable_bonds>
6

> <r_i_docking_score>
-7.69282653117886

> <r_i_glide_ligand_efficiency>
-0.265269880385478

> <r_i_glide_ligand_efficiency_sa>
-0.814993115941202

> <r_i_glide_ligand_efficiency_ln>
-1.76146220239051

> <r_i_glide_gscore>
-7.69282653117886

> <r_i_glide_lipo>
-1.2528931166573

> <r_i_glide_hbond>
-0.605393293175949

> <r_i_glide_metal>
-2.3

> <r_i_glide_rewards>
-0.847215520584112

> <r_i_glide_evdw>
-22.9113826751709

> <r_i_glide_ecoul>
-12.8136253356934

> <r_i_glide_erotb>
0.578581068642931

> <r_i_glide_esite>
-0.19829273529188

> <r_i_glide_emodel>
-54.0740408184024

> <r_i_glide_energy>
-35.7250080108643

> <r_i_glide_einternal>
0.800389528274536

> <i_i_glide_confnum>
48

> <i_i_glide_posenum>
252

> <r_i_glide_eff_state_penalty>
0

> <s_user_duplicate_titles>
CHEMBL3192_lig1047

> <s_m_subgroup_title>
dock_pv

> <s_m_subgroupid>
dock_pv

> <b_m_subgroup_collapsed>
1

$$$$
CHEMBL3192_lig1046
                    3D
 Schrodinger Suite 2021-1.
 50 53  0  0  1  0            999 V2000
  -26.0219   31.9204  -45.5722 C   0  0  0  0  0  0
  -24.8151   31.6972  -46.4775 C   0  0  0  0  0  0
  -25.0554   31.4467  -47.8336 C   0  0  0  0  0  0
  -23.9970   31.2690  -48.7216 C   0  0  0  0  0  0
  -24.3082   30.9169  -50.3811 Cl  0  0  0  0  0  0
  -22.6868   31.3566  -48.2641 C   0  0  0  0  0  0
  -22.4392   31.6180  -46.9190 C   0  0  0  0  0  0
  -23.4855   31.7778  -45.9994 C   0  0  0  0  0  0
  -23.1394   32.0415  -44.5700 C   0  0  0  0  0  0
  -22.1817   32.9977  -44.2053 C   0  0  0  0  0  0
  -21.9508   33.1885  -42.8417 C   0  0  0  0  0  0
  -22.6234   32.4971  -41.8876 N   0  0  0  0  0  0
  -23.5323   31.5852  -42.3262 C   0  0  0  0  0  0
  -24.3088   30.8690  -41.4074 N   0  0  0  0  0  0
  -24.5952   31.3967  -40.0721 C   0  0  1  0  0  0
  -25.5555   32.5948  -40.1823 C   0  0  0  0  0  0
  -26.8432   32.2437  -40.9268 C   0  0  0  0  0  0
  -27.4617   30.9600  -40.3789 C   0  0  0  0  0  0
  -28.7936   30.7013  -40.6618 C   0  0  0  0  0  0
  -29.3826   29.5056  -40.3112 C   0  0  0  0  0  0
  -28.6856   28.5434  -39.5810 C   0  0  0  0  0  0
  -27.3484   28.8110  -39.2484 C   0  0  0  0  0  0
  -26.7194   30.0068  -39.6383 C   0  0  0  0  0  0
  -25.2741   30.3070  -39.2098 C   0  0  0  0  0  0
  -29.4130   27.2877  -39.1519 C   0  0  0  0  0  0
  -30.3928   26.8690  -39.7831 O   0  0  0  0  0  0
  -29.0656   26.7689  -37.9810 N   0  0  0  0  0  0
  -29.8130   25.6688  -37.5103 O   0  0  0  0  0  0
  -23.7986   31.3112  -43.6279 N   0  0  0  0  0  0
  -26.9155   32.1812  -46.1406 H   0  0  0  0  0  0
  -26.2305   31.0287  -44.9807 H   0  0  0  0  0  0
  -25.8413   32.7500  -44.8878 H   0  0  0  0  0  0
  -26.0692   31.3849  -48.2029 H   0  0  0  0  0  0
  -21.8609   31.2182  -48.9467 H   0  0  0  0  0  0
  -21.4130   31.6692  -46.5827 H   0  0  0  0  0  0
  -21.6486   33.5765  -44.9449 H   0  0  0  0  0  0
  -21.2290   33.9135  -42.4939 H   0  0  0  0  0  0
  -25.0586   30.3407  -41.8259 H   0  0  0  0  0  0
  -23.6620   31.7259  -39.6087 H   0  0  0  0  0  0
  -25.0647   33.4674  -40.6154 H   0  0  0  0  0  0
  -25.8628   32.8691  -39.1810 H   0  0  0  0  0  0
  -26.6335   32.1132  -41.9896 H   0  0  0  0  0  0
  -27.5460   33.0745  -40.8567 H   0  0  0  0  0  0
  -29.3848   31.4329  -41.1810 H   0  0  0  0  0  0
  -30.4034   29.3554  -40.6060 H   0  0  0  0  0  0
  -26.7803   28.0930  -38.6737 H   0  0  0  0  0  0
  -25.3072   30.6661  -38.1801 H   0  0  0  0  0  0
  -24.6699   29.4027  -39.1808 H   0  0  0  0  0  0
  -28.3488   27.0812  -37.3354 H   0  0  0  0  0  0
  -29.2003   24.9257  -37.5809 H   0  0  0  0  0  0
  1  2  1  0  0  0
  1 30  1  0  0  0
  1 31  1  0  0  0
  1 32  1  0  0  0
  2  3  2  0  0  0
  2  8  1  0  0  0
  3  4  1  0  0  0
  3 33  1  0  0  0
  4  5  1  0  0  0
  4  6  2  0  0  0
  6  7  1  0  0  0
  6 34  1  0  0  0
  7  8  2  0  0  0
  7 35  1  0  0  0
  8  9  1  0  0  0
  9 10  2  0  0  0
  9 29  1  0  0  0
 10 11  1  0  0  0
 10 36  1  0  0  0
 11 12  2  0  0  0
 11 37  1  0  0  0
 12 13  1  0  0  0
 13 14  1  0  0  0
 13 29  2  0  0  0
 14 15  1  0  0  0
 14 38  1  0  0  0
 15 16  1  0  0  0
 15 24  1  0  0  0
 15 39  1  0  0  0
 16 17  1  0  0  0
 16 40  1  0  0  0
 16 41  1  0  0  0
 17 18  1  0  0  0
 17 42  1  0  0  0
 17 43  1  0  0  0
 18 19  2  0  0  0
 18 23  1  0  0  0
 19 20  1  0  0  0
 19 44  1  0  0  0
 20 21  2  0  0  0
 20 45  1  0  0  0
 21 22  1  0  0  0
 21 25  1  0  0  0
 22 23  2  0  0  0
 22 46  1  0  0  0
 23 24  1  0  0  0
 24 47  1  0  0  0
 24 48  1  0  0  0
 25 26  2  0  0  0
 25 27  1  0  0  0
 27 28  1  0  0  0
 27 49  1  0  0  0
 28 50  1  0  0  0
M  END
> <s_m_entry_id>
52961

> <s_m_entry_name>
dock_pv.180

> <s_m_Source_Path>
/home/csk/Desktop/cluster/DUD-E-result/hdac8

> <s_m_Source_File>
dock_pv.maegz

> <i_m_Source_File_Index>
180

> <chembl_id>
CHEMBL3694295

> <chembl_pref_name>
None

> <i_lp_mmshare_version>
53161

> <i_f3d_flags>
0

> <r_lp_tautomer_probability>
0.999999987636

> <s_lp_Force_Field>
OPLS_2005

> <r_lp_Energy>
23.612251

> <b_lp_Chiralities_Consistent>
1

> <s_lp_Variant>
CHEMBL3192_lig1046-2

> <s_i_glide_gridfile>
glide-grid_3f07

> <i_i_glide_lignum>
1132

> <i_i_glide_rotatable_bonds>
6

> <r_i_docking_score>
-7.68312266203843

> <r_i_glide_ligand_efficiency>
-0.264935264208222

> <r_i_glide_ligand_efficiency_sa>
-0.813965069030825

> <r_i_glide_ligand_efficiency_ln>
-1.75924026242624

> <r_i_glide_gscore>
-7.68312266203843

> <r_i_glide_lipo>
-1.31016328787259

> <r_i_glide_hbond>
-0.582189545617298

> <r_i_glide_metal>
-2.3

> <r_i_glide_rewards>
-0.889796626310774

> <r_i_glide_evdw>
-17.3658485412598

> <r_i_glide_ecoul>
-14.114725112915

> <r_i_glide_erotb>
0.588740612476423

> <r_i_glide_esite>
-0.204212620713949

> <r_i_glide_emodel>
-45.7246921768177

> <r_i_glide_energy>
-31.4805736541748

> <r_i_glide_einternal>
2.15482831001282

> <i_i_glide_confnum>
57

> <i_i_glide_posenum>
129

> <r_i_glide_eff_state_penalty>
0

> <s_user_duplicate_titles>
CHEMBL3192_lig1046

> <s_m_subgroup_title>
dock_pv

> <s_m_subgroupid>
dock_pv

> <b_m_subgroup_collapsed>
1

$$$$
CHEMBL3192_lig723
                    3D
 Schrodinger Suite 2021-1.
 49 51  0  0  1  0            999 V2000
  -29.8121   26.4688  -38.6091 C   0  0  0  0  0  0
  -28.5556   27.3654  -38.6026 C   0  0  0  0  0  0
  -28.6142   28.6721  -39.4454 C   0  0  0  0  0  0
  -27.3377   28.9573  -40.2754 C   0  0  0  0  0  0
  -26.1151   29.5061  -39.5076 C   0  0  0  0  0  0
  -30.5787   26.4691  -39.5810 O   0  0  0  0  0  0
  -29.9913   25.6690  -37.5469 N   0  0  0  0  0  0
  -31.0139   24.7114  -37.5959 O   0  0  0  0  0  0
  -26.2133   31.1520  -38.7478 S   0  0  0  0  0  0
  -26.4366   32.2364  -40.1678 C   0  0  0  0  0  0
  -26.1305   31.8610  -41.3687 N   0  0  0  0  0  0
  -26.3267   32.7144  -42.4260 C   0  0  0  0  0  0
  -26.9616   33.9051  -42.2538 C   0  0  0  0  0  0
  -27.4127   34.3095  -40.9450 C   0  0  0  0  0  0
  -27.0153   33.4578  -39.9814 N   0  0  0  0  0  0
  -28.1660   35.2461  -40.7107 O   0  0  0  0  0  0
  -24.6785   31.6217  -46.2733 C   0  0  0  0  0  0
  -24.1373   31.1054  -45.0877 C   0  0  0  0  0  0
  -24.6925   31.4178  -43.8482 C   0  0  0  0  0  0
  -25.8060   32.2644  -43.7527 C   0  0  0  0  0  0
  -26.3687   32.7469  -44.9415 C   0  0  0  0  0  0
  -25.8175   32.4288  -46.1791 C   0  0  0  0  0  0
  -24.0492   31.3378  -47.6024 C   0  0  0  0  0  0
  -22.6633   31.1442  -47.7123 C   0  0  0  0  0  0
  -22.0754   30.8657  -48.9421 C   0  0  0  0  0  0
  -22.8670   30.7895  -50.0825 C   0  0  0  0  0  0
  -24.2407   30.9978  -50.0029 C   0  0  0  0  0  0
  -24.8258   31.2696  -48.7693 C   0  0  0  0  0  0
  -28.2557   27.5957  -37.5812 H   0  0  0  0  0  0
  -27.7596   26.7348  -38.9941 H   0  0  0  0  0  0
  -29.4477   28.6432  -40.1497 H   0  0  0  0  0  0
  -28.8376   29.5190  -38.7947 H   0  0  0  0  0  0
  -27.0189   28.0470  -40.7812 H   0  0  0  0  0  0
  -27.5943   29.6488  -41.0770 H   0  0  0  0  0  0
  -25.8519   28.8257  -38.7023 H   0  0  0  0  0  0
  -25.2553   29.5293  -40.1779 H   0  0  0  0  0  0
  -29.4111   25.5943  -36.7234 H   0  0  0  0  0  0
  -30.5368   23.8711  -37.6479 H   0  0  0  0  0  0
  -27.1098   34.6033  -43.0576 H   0  0  0  0  0  0
  -27.1510   33.7822  -39.0396 H   0  0  0  0  0  0
  -23.2672   30.4673  -45.1164 H   0  0  0  0  0  0
  -24.2266   31.0241  -42.9551 H   0  0  0  0  0  0
  -27.2339   33.3934  -44.9200 H   0  0  0  0  0  0
  -26.2681   32.8535  -47.0638 H   0  0  0  0  0  0
  -22.0245   31.2122  -46.8449 H   0  0  0  0  0  0
  -21.0082   30.7136  -49.0106 H   0  0  0  0  0  0
  -22.4097   30.5791  -51.0381 H   0  0  0  0  0  0
  -24.8498   30.9568  -50.8932 H   0  0  0  0  0  0
  -25.8950   31.4137  -48.7299 H   0  0  0  0  0  0
  1  2  1  0  0  0
  1  6  2  0  0  0
  1  7  1  0  0  0
  2  3  1  0  0  0
  2 29  1  0  0  0
  2 30  1  0  0  0
  3  4  1  0  0  0
  3 31  1  0  0  0
  3 32  1  0  0  0
  4  5  1  0  0  0
  4 33  1  0  0  0
  4 34  1  0  0  0
  5  9  1  0  0  0
  5 35  1  0  0  0
  5 36  1  0  0  0
  7  8  1  0  0  0
  7 37  1  0  0  0
  8 38  1  0  0  0
  9 10  1  0  0  0
 10 11  2  0  0  0
 10 15  1  0  0  0
 11 12  1  0  0  0
 12 13  2  0  0  0
 12 20  1  0  0  0
 13 14  1  0  0  0
 13 39  1  0  0  0
 14 15  1  0  0  0
 14 16  2  0  0  0
 15 40  1  0  0  0
 17 18  1  0  0  0
 17 22  2  0  0  0
 17 23  1  0  0  0
 18 19  2  0  0  0
 18 41  1  0  0  0
 19 20  1  0  0  0
 19 42  1  0  0  0
 20 21  2  0  0  0
 21 22  1  0  0  0
 21 43  1  0  0  0
 22 44  1  0  0  0
 23 24  1  0  0  0
 23 28  2  0  0  0
 24 25  2  0  0  0
 24 45  1  0  0  0
 25 26  1  0  0  0
 25 46  1  0  0  0
 26 27  2  0  0  0
 26 47  1  0  0  0
 27 28  1  0  0  0
 27 48  1  0  0  0
 28 49  1  0  0  0
M  END
> <s_m_entry_id>
52962

> <s_m_entry_name>
dock_pv.181

> <s_m_Source_Path>
/home/csk/Desktop/cluster/DUD-E-result/hdac8

> <s_m_Source_File>
dock_pv.maegz

> <i_m_Source_File_Index>
181

> <chembl_id>
CHEMBL3426803

> <chembl_pref_name>
None

> <i_lp_mmshare_version>
53161

> <i_f3d_flags>
0

> <r_lp_tautomer_probability>
0.660323467326753

> <s_lp_Force_Field>
OPLS_2005

> <r_lp_Energy>
34.657559

> <b_lp_Chiralities_Consistent>
1

> <s_lp_Variant>
CHEMBL3192_lig723-1

> <s_i_glide_gridfile>
glide-grid_3f07

> <i_i_glide_lignum>
768

> <i_i_glide_rotatable_bonds>
10

> <r_i_docking_score>
-7.67780005176372

> <r_i_glide_ligand_efficiency>
-0.274207144705847

> <r_i_glide_ligand_efficiency_sa>
-0.832654390698431

> <r_i_glide_ligand_efficiency_ln>
-1.77226168195213

> <r_i_glide_gscore>
-7.67780005176372

> <r_i_glide_lipo>
-0.932780414064038

> <r_i_glide_hbond>
-0.304698416286155

> <r_i_glide_metal>
-2.3

> <r_i_glide_rewards>
-0.787053808939119

> <r_i_glide_evdw>
-30.7035388946533

> <r_i_glide_ecoul>
-17.664722442627

> <r_i_glide_erotb>
1.12529490231154

> <r_i_glide_esite>
-0.293677003659236

> <r_i_glide_emodel>
-72.4528647489918

> <r_i_glide_energy>
-48.3682613372803

> <r_i_glide_einternal>
4.26307487487793

> <i_i_glide_confnum>
32

> <i_i_glide_posenum>
63

> <r_i_glide_eff_state_penalty>
0

> <s_user_duplicate_titles>
CHEMBL3192_lig723,CHEMBL3192_lig723

> <s_m_subgroup_title>
dock_pv

> <s_m_subgroupid>
dock_pv

> <b_m_subgroup_collapsed>
1

$$$$
CHEMBL3192_lig1029
                    3D
 Schrodinger Suite 2021-1.
 40 42  0  0  1  0            999 V2000
  -30.2131   25.4190  -37.3935 O   0  0  0  0  0  0
  -29.4130   26.5636  -37.5810 N   0  0  0  0  0  0
  -29.4130   27.1546  -38.7810 C   0  0  0  0  0  0
  -30.2585   26.8690  -39.6210 O   0  0  0  0  0  0
  -28.4132   28.2565  -39.0361 C   0  0  0  0  0  0
  -27.1964   28.2424  -38.3810 C   0  0  0  0  0  0
  -26.2717   29.2637  -38.5368 C   0  0  0  0  0  0
  -26.5085   30.3178  -39.3930 C   0  0  0  0  0  0
  -25.5039   31.4536  -39.4225 C   0  0  0  0  0  0
  -25.5278   32.2744  -40.7133 C   0  0  0  0  0  0
  -26.9743   32.5963  -41.1376 C   0  0  2  0  0  0
  -27.9433   31.3889  -41.1810 C   0  0  0  0  0  0
  -27.7052   30.3282  -40.1306 C   0  0  0  0  0  0
  -28.6491   29.3032  -39.9369 C   0  0  0  0  0  0
  -27.0130   33.3404  -42.4028 N   0  0  0  0  0  0
  -26.5727   32.8614  -43.6543 C   0  0  0  0  0  0
  -26.6900   33.7136  -44.7538 C   0  0  0  0  0  0
  -26.2570   33.3119  -46.0188 C   0  0  0  0  0  0
  -25.6665   32.0564  -46.1991 C   0  0  0  0  0  0
  -25.2189   31.6690  -47.5322 C   0  0  0  0  0  0
  -24.8659   31.3579  -48.5900 N   0  0  0  0  0  0
  -25.5239   31.2017  -45.0945 C   0  0  0  0  0  0
  -24.7215   29.6690  -45.1810 Cl  0  0  0  0  0  0
  -26.0117   31.5934  -43.8521 C   0  0  0  0  0  0
  -29.5809   24.6896  -37.3700 H   0  0  0  0  0  0
  -28.8320   26.7902  -36.7788 H   0  0  0  0  0  0
  -26.9889   27.4471  -37.6822 H   0  0  0  0  0  0
  -25.3467   29.2327  -37.9810 H   0  0  0  0  0  0
  -24.4905   31.0976  -39.2277 H   0  0  0  0  0  0
  -25.7675   32.0690  -38.5690 H   0  0  0  0  0  0
  -24.9512   31.7468  -41.4657 H   0  0  0  0  0  0
  -24.9825   33.2046  -40.5432 H   0  0  0  0  0  0
  -27.3405   33.2942  -40.3823 H   0  0  0  0  0  0
  -28.9697   31.7440  -41.1061 H   0  0  0  0  0  0
  -27.8819   30.8690  -42.1343 H   0  0  0  0  0  0
  -29.5696   29.3263  -40.5036 H   0  0  0  0  0  0
  -27.1638   34.3366  -42.3345 H   0  0  0  0  0  0
  -27.1248   34.6956  -44.6371 H   0  0  0  0  0  0
  -26.3750   33.9931  -46.8510 H   0  0  0  0  0  0
  -25.9162   30.8862  -43.0472 H   0  0  0  0  0  0
  1  2  1  0  0  0
  1 25  1  0  0  0
  2  3  1  0  0  0
  2 26  1  0  0  0
  3  4  2  0  0  0
  3  5  1  0  0  0
  5  6  2  0  0  0
  5 14  1  0  0  0
  6  7  1  0  0  0
  6 27  1  0  0  0
  7  8  2  0  0  0
  7 28  1  0  0  0
  8  9  1  0  0  0
  8 13  1  0  0  0
  9 10  1  0  0  0
  9 29  1  0  0  0
  9 30  1  0  0  0
 10 11  1  0  0  0
 10 31  1  0  0  0
 10 32  1  0  0  0
 11 12  1  0  0  0
 11 15  1  0  0  0
 11 33  1  0  0  0
 12 13  1  0  0  0
 12 34  1  0  0  0
 12 35  1  0  0  0
 13 14  2  0  0  0
 14 36  1  0  0  0
 15 16  1  0  0  0
 15 37  1  0  0  0
 16 17  2  0  0  0
 16 24  1  0  0  0
 17 18  1  0  0  0
 17 38  1  0  0  0
 18 19  2  0  0  0
 18 39  1  0  0  0
 19 20  1  0  0  0
 19 22  1  0  0  0
 20 21  3  0  0  0
 22 23  1  0  0  0
 22 24  2  0  0  0
 24 40  1  0  0  0
M  END
> <s_m_entry_id>
52963

> <s_m_entry_name>
dock_pv.182

> <s_m_Source_Path>
/home/csk/Desktop/cluster/DUD-E-result/hdac8

> <s_m_Source_File>
dock_pv.maegz

> <i_m_Source_File_Index>
182

> <chembl_id>
CHEMBL3357475

> <chembl_pref_name>
None

> <i_lp_mmshare_version>
53161

> <i_f3d_flags>
0

> <r_lp_tautomer_probability>
1

> <s_lp_Force_Field>
OPLS_2005

> <r_lp_Energy>
26.851377

> <b_lp_Chiralities_Consistent>
1

> <s_lp_Variant>
CHEMBL3192_lig1029-1

> <s_i_glide_gridfile>
glide-grid_3f07

> <i_i_glide_lignum>
1097

> <i_i_glide_rotatable_bonds>
5

> <r_i_docking_score>
-7.67580387041358

> <r_i_glide_ligand_efficiency>
-0.319825161267233

> <r_i_glide_ligand_efficiency_sa>
-0.922535401845038

> <r_i_glide_ligand_efficiency_ln>
-1.83717208587864

> <r_i_glide_gscore>
-7.67580387041358

> <r_i_glide_lipo>
-1.28591571429307

> <r_i_glide_hbond>
-0.60555221427116

> <r_i_glide_metal>
-1.81117693795983

> <r_i_glide_rewards>
-1.35446437242438

> <r_i_glide_evdw>
-20.0859241485596

> <r_i_glide_ecoul>
-13.6784906387329

> <r_i_glide_erotb>
0.649005007565428

> <r_i_glide_esite>
-0.211629835792657

> <r_i_glide_emodel>
-49.5172247229358

> <r_i_glide_energy>
-33.7644147872925

> <r_i_glide_einternal>
4.11428785324097

> <i_i_glide_confnum>
29

> <i_i_glide_posenum>
373

> <r_i_glide_eff_state_penalty>
0

> <s_user_duplicate_titles>
CHEMBL3192_lig1029

> <s_m_subgroup_title>
dock_pv

> <s_m_subgroupid>
dock_pv

> <b_m_subgroup_collapsed>
1

$$$$
CHEMBL3192_lig847
                    3D
 Schrodinger Suite 2021-1.
 51 53  0  0  1  0            999 V2000
  -21.9882   30.5083  -37.0468 C   0  0  0  0  0  0
  -21.4743   30.9637  -38.4307 C   0  0  0  0  0  0
  -20.1951   31.8075  -38.2713 C   0  0  0  0  0  0
  -22.4805   31.6924  -39.3747 C   0  0  0  0  0  0
  -23.9525   31.2680  -39.4154 C   0  0  0  0  0  0
  -24.4603   30.2270  -38.8043 N   0  0  0  0  0  0
  -25.7615   30.1670  -39.2102 C   0  0  0  0  0  0
  -26.7333   29.2112  -38.8926 C   0  0  0  0  0  0
  -27.9832   29.2830  -39.5163 C   0  0  0  0  0  0
  -29.0130   28.2433  -39.3034 C   0  0  0  0  0  0
  -29.0447   27.2995  -38.3312 C   0  0  0  0  0  0
  -30.1019   26.3140  -38.2308 C   0  0  0  0  0  0
  -30.8530   26.0697  -39.1796 O   0  0  0  0  0  0
  -30.2124   25.7097  -37.0364 N   0  0  0  0  0  0
  -31.1866   24.7082  -36.8835 O   0  0  0  0  0  0
  -28.2668   30.3495  -40.3809 C   0  0  0  0  0  0
  -27.3377   31.3545  -40.6715 C   0  0  0  0  0  0
  -26.0725   31.2292  -40.0857 C   0  0  0  0  0  0
  -24.9016   31.9652  -40.1504 N   0  0  0  0  0  0
  -24.7083   33.2317  -40.8611 C   0  0  0  0  0  0
  -24.0205   33.0568  -42.2322 C   0  0  0  0  0  0
  -24.7787   32.1619  -43.1981 C   0  0  0  0  0  0
  -24.3334   30.8692  -43.4940 C   0  0  0  0  0  0
  -25.0793   30.0957  -44.3850 C   0  0  0  0  0  0
  -26.2322   30.6366  -44.9565 C   0  0  0  0  0  0
  -26.6126   31.9327  -44.6076 C   0  0  0  0  0  0
  -25.9070   32.6955  -43.7369 N   0  0  0  0  0  0
  -22.4961   31.3050  -36.5172 H   0  0  0  0  0  0
  -22.6829   29.6745  -37.1159 H   0  0  0  0  0  0
  -21.1700   30.1635  -36.4138 H   0  0  0  0  0  0
  -21.1571   30.0703  -38.9519 H   0  0  0  0  0  0
  -20.3972   32.7339  -37.7317 H   0  0  0  0  0  0
  -19.4252   31.2664  -37.7200 H   0  0  0  0  0  0
  -19.7709   32.0752  -39.2397 H   0  0  0  0  0  0
  -22.0793   31.5927  -40.3822 H   0  0  0  0  0  0
  -22.4309   32.7601  -39.1815 H   0  0  0  0  0  0
  -26.4871   28.4008  -38.2269 H   0  0  0  0  0  0
  -29.8109   28.2641  -40.0322 H   0  0  0  0  0  0
  -28.2726   27.2607  -37.5816 H   0  0  0  0  0  0
  -29.6399   25.8470  -36.2139 H   0  0  0  0  0  0
  -30.6850   23.8875  -36.9463 H   0  0  0  0  0  0
  -29.2356   30.4031  -40.8575 H   0  0  0  0  0  0
  -27.5695   32.1595  -41.3528 H   0  0  0  0  0  0
  -25.6729   33.7289  -40.9710 H   0  0  0  0  0  0
  -24.1230   33.8931  -40.2203 H   0  0  0  0  0  0
  -23.9014   34.0360  -42.6988 H   0  0  0  0  0  0
  -23.0025   32.6899  -42.1084 H   0  0  0  0  0  0
  -23.4368   30.4752  -43.0401 H   0  0  0  0  0  0
  -24.7689   29.0913  -44.6342 H   0  0  0  0  0  0
  -26.8318   30.0685  -45.6491 H   0  0  0  0  0  0
  -27.5031   32.3780  -45.0267 H   0  0  0  0  0  0
  1  2  1  0  0  0
  1 28  1  0  0  0
  1 29  1  0  0  0
  1 30  1  0  0  0
  2  3  1  0  0  0
  2  4  1  0  0  0
  2 31  1  0  0  0
  3 32  1  0  0  0
  3 33  1  0  0  0
  3 34  1  0  0  0
  4  5  1  0  0  0
  4 35  1  0  0  0
  4 36  1  0  0  0
  5  6  2  0  0  0
  5 19  1  0  0  0
  6  7  1  0  0  0
  7  8  2  0  0  0
  7 18  1  0  0  0
  8  9  1  0  0  0
  8 37  1  0  0  0
  9 10  1  0  0  0
  9 16  2  0  0  0
 10 11  2  0  0  0
 10 38  1  0  0  0
 11 12  1  0  0  0
 11 39  1  0  0  0
 12 13  2  0  0  0
 12 14  1  0  0  0
 14 15  1  0  0  0
 14 40  1  0  0  0
 15 41  1  0  0  0
 16 17  1  0  0  0
 16 42  1  0  0  0
 17 18  2  0  0  0
 17 43  1  0  0  0
 18 19  1  0  0  0
 19 20  1  0  0  0
 20 21  1  0  0  0
 20 44  1  0  0  0
 20 45  1  0  0  0
 21 22  1  0  0  0
 21 46  1  0  0  0
 21 47  1  0  0  0
 22 23  2  0  0  0
 22 27  1  0  0  0
 23 24  1  0  0  0
 23 48  1  0  0  0
 24 25  2  0  0  0
 24 49  1  0  0  0
 25 26  1  0  0  0
 25 50  1  0  0  0
 26 27  2  0  0  0
 26 51  1  0  0  0
M  END
> <s_m_entry_id>
52964

> <s_m_entry_name>
dock_pv.183

> <s_m_Source_Path>
/home/csk/Desktop/cluster/DUD-E-result/hdac8

> <s_m_Source_File>
dock_pv.maegz

> <i_m_Source_File_Index>
183

> <chembl_id>
CHEMBL3648265

> <chembl_pref_name>
None

> <i_lp_mmshare_version>
53161

> <i_f3d_flags>
0

> <r_lp_tautomer_probability>
1

> <s_lp_Force_Field>
OPLS_2005

> <r_lp_Energy>
18.650911

> <b_lp_Chiralities_Consistent>
1

> <s_lp_Variant>
CHEMBL3192_lig847-1

> <s_i_glide_gridfile>
glide-grid_3f07

> <i_i_glide_lignum>
904

> <i_i_glide_rotatable_bonds>
9

> <r_i_docking_score>
-7.67433648510312

> <r_i_glide_ligand_efficiency>
-0.284234684633449

> <r_i_glide_ligand_efficiency_sa>
-0.852704052963556

> <r_i_glide_ligand_efficiency_ln>
-1.78645901240687

> <r_i_glide_gscore>
-7.67433648510312

> <r_i_glide_lipo>
-1.3612175518247

> <r_i_glide_hbond>
-0.243729019817644

> <r_i_glide_metal>
-2.3

> <r_i_glide_rewards>
-1.21420742048647

> <r_i_glide_evdw>
-35.9102973937988

> <r_i_glide_ecoul>
-10.6285438537598

> <r_i_glide_erotb>
1.01322673603152

> <r_i_glide_esite>
-0.178612781251924

> <r_i_glide_emodel>
-70.353814746011

> <r_i_glide_energy>
-46.5388412475586

> <r_i_glide_einternal>
3.38898134231567

> <i_i_glide_confnum>
30

> <i_i_glide_posenum>
253

> <r_i_glide_eff_state_penalty>
0

> <s_user_duplicate_titles>
CHEMBL3192_lig847

> <s_m_subgroup_title>
dock_pv

> <s_m_subgroupid>
dock_pv

> <b_m_subgroup_collapsed>
1

$$$$
CHEMBL3192_lig541
                    3D
 Schrodinger Suite 2021-1.
 48 50  0  0  1  0            999 V2000
  -29.1189   28.1397  -39.2904 C   0  0  0  0  0  0
  -29.1364   27.1859  -38.3330 C   0  0  0  0  0  0
  -30.1905   26.1960  -38.2655 C   0  0  0  0  0  0
  -31.0129   26.0690  -39.1810 O   0  0  0  0  0  0
  -30.2130   25.4684  -37.1377 N   0  0  0  0  0  0
  -31.1911   24.4690  -37.0116 O   0  0  0  0  0  0
  -28.5148   30.3236  -40.2852 C   0  0  0  0  0  0
  -28.1510   29.2323  -39.4796 C   0  0  0  0  0  0
  -26.8814   29.2135  -38.8918 C   0  0  0  0  0  0
  -27.5873   31.3158  -40.5973 C   0  0  0  0  0  0
  -26.2934   31.2248  -40.0836 C   0  0  0  0  0  0
  -25.9508   30.2002  -39.2070 C   0  0  0  0  0  0
  -24.6930   30.1407  -38.6160 N   0  0  0  0  0  0
  -23.7607   30.9473  -38.9795 C   0  0  0  0  0  0
  -23.9754   31.9009  -39.9810 N   0  0  0  0  0  0
  -25.2200   32.2007  -40.5047 C   0  0  0  0  0  0
  -25.4531   33.1224  -41.2927 O   0  0  0  0  0  0
  -22.3978   30.8648  -38.2553 C   0  0  0  0  0  0
  -22.8585   32.6580  -40.6073 C   0  0  0  0  0  0
  -22.0194   31.8555  -41.6339 C   0  0  0  0  0  0
  -22.6544   31.6692  -43.0152 C   0  0  0  0  0  0
  -23.7893   30.8690  -43.1810 C   0  0  0  0  0  0
  -24.3344   30.6669  -44.4459 C   0  0  0  0  0  0
  -23.7420   31.2691  -45.5526 C   0  0  0  0  0  0
  -22.6132   32.0712  -45.4023 C   0  0  0  0  0  0
  -22.0710   32.2715  -44.1349 C   0  0  0  0  0  0
  -22.4452   30.2474  -36.8335 C   0  0  0  0  0  0
  -29.7695   30.4246  -40.7810 F   0  0  0  0  0  0
  -29.8916   28.1324  -40.0421 H   0  0  0  0  0  0
  -28.3679   27.1517  -37.5810 H   0  0  0  0  0  0
  -29.5731   25.5068  -36.3557 H   0  0  0  0  0  0
  -30.7071   23.6513  -37.1815 H   0  0  0  0  0  0
  -26.5872   28.4105  -38.2353 H   0  0  0  0  0  0
  -27.8668   32.1227  -41.2607 H   0  0  0  0  0  0
  -21.6910   30.3185  -38.8749 H   0  0  0  0  0  0
  -21.9597   31.8496  -38.1261 H   0  0  0  0  0  0
  -23.1382   33.6304  -41.0190 H   0  0  0  0  0  0
  -22.1870   32.9403  -39.7994 H   0  0  0  0  0  0
  -21.0873   32.4044  -41.7765 H   0  0  0  0  0  0
  -21.7023   30.8971  -41.2223 H   0  0  0  0  0  0
  -24.2477   30.3957  -42.3279 H   0  0  0  0  0  0
  -25.2108   30.0474  -44.5680 H   0  0  0  0  0  0
  -24.1616   31.1150  -46.5358 H   0  0  0  0  0  0
  -22.1556   32.5326  -46.2651 H   0  0  0  0  0  0
  -21.1896   32.8874  -44.0309 H   0  0  0  0  0  0
  -21.4409   30.1421  -36.4226 H   0  0  0  0  0  0
  -23.0128   30.8690  -36.1467 H   0  0  0  0  0  0
  -22.9170   29.2690  -36.8030 H   0  0  0  0  0  0
  1  2  2  0  0  0
  1  8  1  0  0  0
  1 29  1  0  0  0
  2  3  1  0  0  0
  2 30  1  0  0  0
  3  4  2  0  0  0
  3  5  1  0  0  0
  5  6  1  0  0  0
  5 31  1  0  0  0
  6 32  1  0  0  0
  7  8  2  0  0  0
  7 10  1  0  0  0
  7 28  1  0  0  0
  8  9  1  0  0  0
  9 12  2  0  0  0
  9 33  1  0  0  0
 10 11  2  0  0  0
 10 34  1  0  0  0
 11 12  1  0  0  0
 11 16  1  0  0  0
 12 13  1  0  0  0
 13 14  2  0  0  0
 14 15  1  0  0  0
 14 18  1  0  0  0
 15 16  1  0  0  0
 15 19  1  0  0  0
 16 17  2  0  0  0
 18 27  1  0  0  0
 18 35  1  0  0  0
 18 36  1  0  0  0
 19 20  1  0  0  0
 19 37  1  0  0  0
 19 38  1  0  0  0
 20 21  1  0  0  0
 20 39  1  0  0  0
 20 40  1  0  0  0
 21 22  2  0  0  0
 21 26  1  0  0  0
 22 23  1  0  0  0
 22 41  1  0  0  0
 23 24  2  0  0  0
 23 42  1  0  0  0
 24 25  1  0  0  0
 24 43  1  0  0  0
 25 26  2  0  0  0
 25 44  1  0  0  0
 26 45  1  0  0  0
 27 46  1  0  0  0
 27 47  1  0  0  0
 27 48  1  0  0  0
M  END
> <s_m_entry_id>
52965

> <s_m_entry_name>
dock_pv.184

> <s_m_Source_Path>
/home/csk/Desktop/cluster/DUD-E-result/hdac8

> <s_m_Source_File>
dock_pv.maegz

> <i_m_Source_File_Index>
184

> <chembl_id>
CHEMBL2425967

> <chembl_pref_name>
None

> <i_lp_mmshare_version>
53161

> <i_f3d_flags>
0

> <r_lp_tautomer_probability>
1

> <s_lp_Force_Field>
OPLS_2005

> <r_lp_Energy>
34.246619

> <b_lp_Chiralities_Consistent>
1

> <s_lp_Variant>
CHEMBL3192_lig541-1

> <s_i_glide_gridfile>
glide-grid_3f07

> <i_i_glide_lignum>
562

> <i_i_glide_rotatable_bonds>
8

> <r_i_docking_score>
-7.67012351860377

> <r_i_glide_ligand_efficiency>
-0.273932982807278

> <r_i_glide_ligand_efficiency_sa>
-0.831821873701651

> <r_i_glide_ligand_efficiency_ln>
-1.77048971270601

> <r_i_glide_gscore>
-7.67012351860377

> <r_i_glide_lipo>
-1.0327466635164

> <r_i_glide_hbond>
-0.237516330838702

> <r_i_glide_metal>
-2.3

> <r_i_glide_rewards>
-1.1114480567051

> <r_i_glide_evdw>
-36.8430519104004

> <r_i_glide_ecoul>
-11.9436311721802

> <r_i_glide_erotb>
0.800626841151871

> <r_i_glide_esite>
-0.15534203734839

> <r_i_glide_emodel>
-72.6029071736295

> <r_i_glide_energy>
-48.7866830825806

> <r_i_glide_einternal>
4.3178768157959

> <i_i_glide_confnum>
4

> <i_i_glide_posenum>
347

> <r_i_glide_eff_state_penalty>
0

> <s_user_duplicate_titles>
CHEMBL3192_lig541

> <s_m_subgroup_title>
dock_pv

> <s_m_subgroupid>
dock_pv

> <b_m_subgroup_collapsed>
1

$$$$
CHEMBL3192_lig955
                    3D
 Schrodinger Suite 2021-1.
 32 33  0  0  1  0            999 V2000
  -26.7776   30.0639  -39.4585 C   0  0  0  0  0  0
  -27.9549   30.0317  -40.2029 C   0  0  0  0  0  0
  -28.8887   29.0007  -39.9811 C   0  0  0  0  0  0
  -28.6314   27.9766  -39.0452 C   0  0  0  0  0  0
  -27.4130   28.0211  -38.3807 C   0  0  0  0  0  0
  -26.5190   29.0653  -38.5482 C   0  0  0  0  0  0
  -29.6261   26.8697  -38.7277 C   0  0  0  0  0  0
  -30.4199   26.4712  -39.5809 O   0  0  0  0  0  0
  -29.7064   26.4696  -37.4471 N   0  0  0  0  0  0
  -30.5782   25.4111  -37.1271 O   0  0  0  0  0  0
  -28.2130   31.0007  -41.1806 N   0  0  0  0  0  0
  -27.2015   31.9591  -41.6429 C   0  0  0  0  0  0
  -26.3813   31.4466  -42.8298 C   0  0  0  0  0  0
  -26.0878   30.0867  -43.0094 C   0  0  0  0  0  0
  -25.3400   29.6689  -44.1063 C   0  0  0  0  0  0
  -24.8518   30.6106  -45.0082 C   0  0  0  0  0  0
  -25.1085   31.9661  -44.8228 C   0  0  0  0  0  0
  -25.8678   32.3833  -43.7323 C   0  0  0  0  0  0
  -26.0291   30.8302  -39.5760 H   0  0  0  0  0  0
  -29.8135   29.0043  -40.5367 H   0  0  0  0  0  0
  -27.1559   27.2692  -37.6538 H   0  0  0  0  0  0
  -25.5934   29.0811  -37.9925 H   0  0  0  0  0  0
  -29.1353   26.7816  -36.6663 H   0  0  0  0  0  0
  -29.9916   24.6585  -36.9928 H   0  0  0  0  0  0
  -28.9060   30.7487  -41.8718 H   0  0  0  0  0  0
  -27.7375   32.8576  -41.9503 H   0  0  0  0  0  0
  -26.5329   32.3008  -40.8551 H   0  0  0  0  0  0
  -26.4393   29.3460  -42.3074 H   0  0  0  0  0  0
  -25.1311   28.6189  -44.2526 H   0  0  0  0  0  0
  -24.2667   30.2898  -45.8572 H   0  0  0  0  0  0
  -24.7193   32.6921  -45.5219 H   0  0  0  0  0  0
  -26.0610   33.4379  -43.5950 H   0  0  0  0  0  0
  1  2  2  0  0  0
  1  6  1  0  0  0
  1 19  1  0  0  0
  2  3  1  0  0  0
  2 11  1  0  0  0
  3  4  2  0  0  0
  3 20  1  0  0  0
  4  5  1  0  0  0
  4  7  1  0  0  0
  5  6  2  0  0  0
  5 21  1  0  0  0
  6 22  1  0  0  0
  7  8  2  0  0  0
  7  9  1  0  0  0
  9 10  1  0  0  0
  9 23  1  0  0  0
 10 24  1  0  0  0
 11 12  1  0  0  0
 11 25  1  0  0  0
 12 13  1  0  0  0
 12 26  1  0  0  0
 12 27  1  0  0  0
 13 14  2  0  0  0
 13 18  1  0  0  0
 14 15  1  0  0  0
 14 28  1  0  0  0
 15 16  2  0  0  0
 15 29  1  0  0  0
 16 17  1  0  0  0
 16 30  1  0  0  0
 17 18  2  0  0  0
 17 31  1  0  0  0
 18 32  1  0  0  0
M  END
> <s_m_entry_id>
52966

> <s_m_entry_name>
dock_pv.185

> <s_m_Source_Path>
/home/csk/Desktop/cluster/DUD-E-result/hdac8

> <s_m_Source_File>
dock_pv.maegz

> <i_m_Source_File_Index>
185

> <chembl_id>
CHEMBL3799897

> <chembl_pref_name>
None

> <i_lp_mmshare_version>
53161

> <i_f3d_flags>
0

> <r_lp_tautomer_probability>
1

> <s_lp_Force_Field>
OPLS_2005

> <r_lp_Energy>
21.378203

> <b_lp_Chiralities_Consistent>
1

> <s_lp_Variant>
CHEMBL3192_lig955-1

> <s_i_glide_gridfile>
glide-grid_3f07

> <i_i_glide_lignum>
1016

> <i_i_glide_rotatable_bonds>
6

> <r_i_docking_score>
-7.66202616191303

> <r_i_glide_ligand_efficiency>
-0.425668120106279

> <r_i_glide_ligand_efficiency_sa>
-1.11556606148281

> <r_i_glide_ligand_efficiency_ln>
-1.96948431634114

> <r_i_glide_gscore>
-7.66202616191303

> <r_i_glide_lipo>
-1.46295994888809

> <r_i_glide_hbond>
-0.608

> <r_i_glide_metal>
-2.3

> <r_i_glide_rewards>
-1.91024329620081

> <r_i_glide_evdw>
-15.4782705307007

> <r_i_glide_ecoul>
-12.6350374221802

> <r_i_glide_erotb>
1.47726340772354

> <r_i_glide_esite>
-0.188917184685604

> <r_i_glide_emodel>
-44.2422061548794

> <r_i_glide_energy>
-28.1133079528809

> <r_i_glide_einternal>
3.55033397674561

> <i_i_glide_confnum>
98

> <i_i_glide_posenum>
367

> <r_i_glide_eff_state_penalty>
0

> <s_user_duplicate_titles>
CHEMBL3192_lig955

> <s_m_subgroup_title>
dock_pv

> <s_m_subgroupid>
dock_pv

> <b_m_subgroup_collapsed>
1

$$$$
CHEMBL3192_lig1085
                    3D
 Schrodinger Suite 2021-1.
 41 43  0  0  1  0            999 V2000
  -30.2601   25.6690  -37.2929 O   0  0  0  0  0  0
  -29.4130   26.7560  -37.5810 N   0  0  0  0  0  0
  -29.3873   27.2406  -38.8237 C   0  0  0  0  0  0
  -30.2131   26.8690  -39.6523 O   0  0  0  0  0  0
  -28.3533   28.3079  -39.1268 C   0  0  0  0  0  0
  -27.1821   28.3556  -38.3810 C   0  0  0  0  0  0
  -26.2130   29.3220  -38.5904 C   0  0  0  0  0  0
  -26.3607   30.2515  -39.5995 C   0  0  0  0  0  0
  -25.3109   31.1729  -39.7863 N   0  0  0  0  0  0
  -25.4905   32.2975  -40.7057 C   0  0  0  0  0  0
  -26.3559   31.9071  -41.9215 C   0  0  2  0  0  0
  -27.6940   31.2927  -41.4713 C   0  0  0  0  0  0
  -27.5269   30.2448  -40.3874 C   0  0  0  0  0  0
  -28.5133   29.2690  -40.1391 C   0  0  0  0  0  0
  -25.6293   30.9011  -42.7356 N   0  0  2  0  0  0
  -24.6717   31.4085  -44.1148 S   0  0  0  0  0  0
  -23.8157   32.5189  -43.6852 O   0  0  0  0  0  0
  -24.1046   30.1956  -44.7173 O   0  0  0  0  0  0
  -25.8736   32.0811  -45.2638 C   0  0  0  0  0  0
  -26.4220   31.2690  -46.2587 C   0  0  0  0  0  0
  -27.3892   31.7752  -47.1277 C   0  0  0  0  0  0
  -27.8130   33.0985  -47.0045 C   0  0  0  0  0  0
  -27.2598   33.9181  -46.0207 C   0  0  0  0  0  0
  -27.6694   35.2006  -45.9012 F   0  0  0  0  0  0
  -26.2875   33.4138  -45.1562 C   0  0  0  0  0  0
  -29.6564   24.9259  -37.1810 H   0  0  0  0  0  0
  -28.8238   27.0315  -36.7994 H   0  0  0  0  0  0
  -27.0130   27.6337  -37.5963 H   0  0  0  0  0  0
  -25.3157   29.3150  -37.9883 H   0  0  0  0  0  0
  -24.6701   31.3626  -39.0272 H   0  0  0  0  0  0
  -25.9620   33.1118  -40.1528 H   0  0  0  0  0  0
  -24.5135   32.6766  -41.0089 H   0  0  0  0  0  0
  -26.5498   32.7993  -42.5158 H   0  0  0  0  0  0
  -28.2130   30.8690  -42.3246 H   0  0  0  0  0  0
  -28.3257   32.0873  -41.0749 H   0  0  0  0  0  0
  -29.4109   29.2690  -40.7415 H   0  0  0  0  0  0
  -26.0694   29.9828  -42.8102 H   0  0  0  0  0  0
  -26.0989   30.2438  -46.3527 H   0  0  0  0  0  0
  -27.8130   31.1431  -47.8944 H   0  0  0  0  0  0
  -28.5678   33.4906  -47.6708 H   0  0  0  0  0  0
  -25.8646   34.0607  -44.4011 H   0  0  0  0  0  0
  1  2  1  0  0  0
  1 26  1  0  0  0
  2  3  1  0  0  0
  2 27  1  0  0  0
  3  4  2  0  0  0
  3  5  1  0  0  0
  5  6  2  0  0  0
  5 14  1  0  0  0
  6  7  1  0  0  0
  6 28  1  0  0  0
  7  8  2  0  0  0
  7 29  1  0  0  0
  8  9  1  0  0  0
  8 13  1  0  0  0
  9 10  1  0  0  0
  9 30  1  0  0  0
 10 11  1  0  0  0
 10 31  1  0  0  0
 10 32  1  0  0  0
 11 12  1  0  0  0
 11 15  1  0  0  0
 11 33  1  0  0  0
 12 13  1  0  0  0
 12 34  1  0  0  0
 12 35  1  0  0  0
 13 14  2  0  0  0
 14 36  1  0  0  0
 15 16  1  0  0  0
 15 37  1  0  0  0
 16 17  2  0  0  0
 16 18  2  0  0  0
 16 19  1  0  0  0
 19 20  2  0  0  0
 19 25  1  0  0  0
 20 21  1  0  0  0
 20 38  1  0  0  0
 21 22  2  0  0  0
 21 39  1  0  0  0
 22 23  1  0  0  0
 22 40  1  0  0  0
 23 24  1  0  0  0
 23 25  2  0  0  0
 25 41  1  0  0  0
M  END
> <s_m_entry_id>
52967

> <s_m_entry_name>
dock_pv.186

> <s_m_Source_Path>
/home/csk/Desktop/cluster/DUD-E-result/hdac8

> <s_m_Source_File>
dock_pv.maegz

> <i_m_Source_File_Index>
186

> <chembl_id>
CHEMBL3694330

> <chembl_pref_name>
None

> <i_lp_mmshare_version>
53161

> <i_f3d_flags>
0

> <r_lp_tautomer_probability>
1

> <s_lp_Force_Field>
OPLS_2005

> <r_lp_Energy>
19.205362

> <b_lp_Chiralities_Consistent>
1

> <s_lp_Variant>
CHEMBL3192_lig1085-1

> <s_i_glide_gridfile>
glide-grid_3f07

> <i_i_glide_lignum>
1209

> <i_i_glide_rotatable_bonds>
6

> <r_i_docking_score>
-7.64289513823749

> <r_i_glide_ligand_efficiency>
-0.3057158055295

> <r_i_glide_ligand_efficiency_sa>
-0.893918437261154

> <r_i_glide_ligand_efficiency_ln>
-1.81159518684726

> <r_i_glide_gscore>
-7.64289513823749

> <r_i_glide_lipo>
-1.4001026791606

> <r_i_glide_hbond>
-0.608

> <r_i_glide_metal>
-1.86057847951532

> <r_i_glide_rewards>
-1.08076009430173

> <r_i_glide_evdw>
-21.3624515533447

> <r_i_glide_ecoul>
-14.2198829650879

> <r_i_glide_erotb>
0.720415211262467

> <r_i_glide_esite>
-0.21276407409189

> <r_i_glide_emodel>
-55.4536963642276

> <r_i_glide_energy>
-35.5823345184326

> <r_i_glide_einternal>
1.14196026325226

> <i_i_glide_confnum>
27

> <i_i_glide_posenum>
370

> <r_i_glide_eff_state_penalty>
0

> <s_user_duplicate_titles>
CHEMBL3192_lig1085

> <s_m_subgroup_title>
dock_pv

> <s_m_subgroupid>
dock_pv

> <b_m_subgroup_collapsed>
1

$$$$
CHEMBL3192_lig130
                    3D
 Schrodinger Suite 2021-1.
 50 53  0  0  1  0            999 V2000
  -24.9739   31.8645  -45.0149 C   0  0  0  0  0  0
  -25.0796   30.4891  -45.1894 C   0  0  0  0  0  0
  -25.4116   29.6699  -44.1146 C   0  0  0  0  0  0
  -25.6345   30.2315  -42.8577 C   0  0  0  0  0  0
  -25.2048   32.4255  -43.7595 C   0  0  0  0  0  0
  -25.5174   31.6170  -42.6531 C   0  0  0  0  0  0
  -25.7895   32.2441  -41.4255 N   0  0  0  0  0  0
  -25.3347   33.6567  -41.1845 C   0  0  1  0  0  0
  -24.8690   34.4453  -42.4597 C   0  0  0  0  0  0
  -25.0397   33.7919  -43.6132 N   0  0  0  0  0  0
  -25.6482   31.5270  -40.1384 C   0  0  0  0  0  0
  -26.6900   30.4569  -39.8124 C   0  0  0  0  0  0
  -27.9445   30.3907  -40.4277 C   0  0  0  0  0  0
  -28.8233   29.3561  -40.1063 C   0  0  0  0  0  0
  -28.4685   28.3920  -39.1518 C   0  0  0  0  0  0
  -27.2294   28.4899  -38.5220 C   0  0  0  0  0  0
  -26.3496   29.5146  -38.8464 C   0  0  0  0  0  0
  -24.2933   35.5300  -42.4250 O   0  0  0  0  0  0
  -29.4129   27.2690  -38.8014 C   0  0  0  0  0  0
  -29.4137   26.8367  -37.5454 N   0  0  0  0  0  0
  -30.2494   26.8680  -39.6006 O   0  0  0  0  0  0
  -30.3611   25.8756  -37.1468 O   0  0  0  0  0  0
  -26.3629   34.5462  -40.4117 C   0  0  0  0  0  0
  -27.5285   35.1767  -41.1856 C   0  0  0  0  0  0
  -28.1449   34.5412  -42.2705 C   0  0  0  0  0  0
  -29.6154   36.4382  -42.5717 C   0  0  0  0  0  0
  -29.0173   37.0706  -41.4838 C   0  0  0  0  0  0
  -29.1736   35.1760  -42.9698 C   0  0  0  0  0  0
  -27.9782   36.4415  -40.8000 C   0  0  0  0  0  0
  -29.7399   34.5663  -44.0351 F   0  0  0  0  0  0
  -30.6210   37.0499  -43.2371 F   0  0  0  0  0  0
  -24.7103   32.4868  -45.8581 H   0  0  0  0  0  0
  -24.9016   30.0689  -46.1657 H   0  0  0  0  0  0
  -25.4914   28.6016  -44.2564 H   0  0  0  0  0  0
  -25.8842   29.5633  -42.0506 H   0  0  0  0  0  0
  -24.4213   33.6279  -40.5824 H   0  0  0  0  0  0
  -24.7502   34.3304  -44.4145 H   0  0  0  0  0  0
  -25.6499   32.1982  -39.2793 H   0  0  0  0  0  0
  -24.6595   31.0652  -40.1303 H   0  0  0  0  0  0
  -28.2269   31.1200  -41.1723 H   0  0  0  0  0  0
  -29.7802   29.3139  -40.6073 H   0  0  0  0  0  0
  -26.9386   27.7567  -37.7871 H   0  0  0  0  0  0
  -25.3824   29.5565  -38.3671 H   0  0  0  0  0  0
  -28.8291   27.1703  -36.7816 H   0  0  0  0  0  0
  -30.9587   26.3657  -36.5722 H   0  0  0  0  0  0
  -25.7878   35.3575  -39.9645 H   0  0  0  0  0  0
  -26.7889   34.0083  -39.5666 H   0  0  0  0  0  0
  -27.8125   33.5670  -42.5954 H   0  0  0  0  0  0
  -29.3470   38.0531  -41.1789 H   0  0  0  0  0  0
  -27.4944   36.9479  -39.9810 H   0  0  0  0  0  0
  1  5  1  0  0  0
  1  2  2  0  0  0
  1 32  1  0  0  0
  2  3  1  0  0  0
  2 33  1  0  0  0
  3  4  2  0  0  0
  3 34  1  0  0  0
  4  6  1  0  0  0
  4 35  1  0  0  0
  5 10  1  0  0  0
  5  6  2  0  0  0
  6  7  1  0  0  0
  7  8  1  0  0  0
  7 11  1  0  0  0
  8  9  1  0  0  0
  8 23  1  0  0  0
  8 36  1  0  0  0
  9 18  2  0  0  0
  9 10  1  0  0  0
 10 37  1  0  0  0
 11 12  1  0  0  0
 11 38  1  0  0  0
 11 39  1  0  0  0
 12 17  1  0  0  0
 12 13  2  0  0  0
 13 14  1  0  0  0
 13 40  1  0  0  0
 14 15  2  0  0  0
 14 41  1  0  0  0
 15 16  1  0  0  0
 15 19  1  0  0  0
 16 17  2  0  0  0
 16 42  1  0  0  0
 17 43  1  0  0  0
 19 20  1  0  0  0
 19 21  2  0  0  0
 20 22  1  0  0  0
 20 44  1  0  0  0
 22 45  1  0  0  0
 23 24  1  0  0  0
 23 46  1  0  0  0
 23 47  1  0  0  0
 24 25  2  0  0  0
 24 29  1  0  0  0
 25 28  1  0  0  0
 25 48  1  0  0  0
 26 27  1  0  0  0
 26 28  2  0  0  0
 26 31  1  0  0  0
 27 29  2  0  0  0
 27 49  1  0  0  0
 28 30  1  0  0  0
 29 50  1  0  0  0
M  END
> <s_m_entry_id>
52968

> <s_m_entry_name>
dock_pv.187

> <s_m_Source_Path>
/home/csk/Desktop/cluster/DUD-E-result/hdac8

> <s_m_Source_File>
dock_pv.maegz

> <i_m_Source_File_Index>
187

> <chembl_id>
CHEMBL481018

> <chembl_pref_name>
None

> <i_lp_mmshare_version>
53161

> <i_f3d_flags>
0

> <r_lp_tautomer_probability>
1

> <s_lp_Force_Field>
OPLS_2005

> <r_lp_Energy>
37.67519

> <b_lp_Chiralities_Consistent>
1

> <s_lp_Variant>
CHEMBL3192_lig130-1

> <s_i_glide_gridfile>
glide-grid_3f07

> <i_i_glide_lignum>
139

> <i_i_glide_rotatable_bonds>
7

> <r_i_docking_score>
-7.63820192755052

> <r_i_glide_ligand_efficiency>
-0.246393610566146

> <r_i_glide_ligand_efficiency_sa>
-0.774016120219363

> <r_i_glide_ligand_efficiency_ln>
-1.72264861743944

> <r_i_glide_gscore>
-7.63820192755052

> <r_i_glide_lipo>
-1.63166813771902

> <r_i_glide_hbond>
-0.608

> <r_i_glide_metal>
-1.74361701470651

> <r_i_glide_rewards>
-0.75551563462711

> <r_i_glide_evdw>
-26.9055271148682

> <r_i_glide_ecoul>
-13.1771965026855

> <r_i_glide_erotb>
0.663300576472862

> <r_i_glide_esite>
-0.240845885824501

> <r_i_glide_emodel>
-50.3992587494248

> <r_i_glide_energy>
-40.0827236175537

> <r_i_glide_einternal>
9.92863368988037

> <i_i_glide_confnum>
10

> <i_i_glide_posenum>
87

> <r_i_glide_eff_state_penalty>
0

> <s_user_duplicate_titles>
CHEMBL3192_lig130,474661

> <s_m_subgroup_title>
dock_pv

> <s_m_subgroupid>
dock_pv

> <b_m_subgroup_collapsed>
1

$$$$
CHEMBL3192_lig1028
                    3D
 Schrodinger Suite 2021-1.
 41 43  0  0  1  0            999 V2000
  -30.2130   25.8090  -37.0539 O   0  0  0  0  0  0
  -29.4130   26.8690  -37.5301 N   0  0  0  0  0  0
  -29.4130   27.1365  -38.8343 C   0  0  0  0  0  0
  -30.2126   26.5509  -39.5810 O   0  0  0  0  0  0
  -28.6527   28.3547  -39.3218 C   0  0  0  0  0  0
  -29.2535   29.1683  -40.2846 C   0  0  0  0  0  0
  -28.6269   30.2881  -40.7810 C   0  0  0  0  0  0
  -27.3634   30.6478  -40.3500 C   0  0  0  0  0  0
  -26.7120   31.8644  -40.9917 C   0  0  0  0  0  0
  -25.6822   32.4691  -40.0456 C   0  0  0  0  0  0
  -24.6565   31.4204  -39.5810 C   0  0  1  0  0  0
  -25.3682   30.3032  -38.7810 C   0  0  0  0  0  0
  -26.7236   29.8670  -39.3560 C   0  0  0  0  0  0
  -27.3852   28.7279  -38.8522 C   0  0  0  0  0  0
  -23.9583   30.8690  -40.7429 N   0  0  0  0  0  0
  -23.0507   31.6598  -41.4733 C   0  0  0  0  0  0
  -22.8882   31.3631  -42.8266 C   0  0  0  0  0  0
  -21.9790   32.0768  -43.6015 C   0  0  0  0  0  0
  -21.2243   33.1130  -43.0359 C   0  0  0  0  0  0
  -21.4003   33.4163  -41.6785 C   0  0  0  0  0  0
  -22.3031   32.6952  -40.9022 C   0  0  0  0  0  0
  -20.2529   33.8734  -43.8598 N   0  3  0  0  0  0
  -19.6009   34.7653  -43.3241 O   0  0  0  0  0  0
  -20.1381   33.5847  -45.0479 O   0  5  0  0  0  0
  -29.5816   25.1091  -36.8570 H   0  0  0  0  0  0
  -28.8502   27.3056  -36.8019 H   0  0  0  0  0  0
  -30.2130   28.9204  -40.6980 H   0  0  0  0  0  0
  -29.1158   30.8662  -41.5470 H   0  0  0  0  0  0
  -26.2421   31.5714  -41.9313 H   0  0  0  0  0  0
  -27.4577   32.6174  -41.2500 H   0  0  0  0  0  0
  -25.1842   33.3213  -40.5099 H   0  0  0  0  0  0
  -26.2130   32.8690  -39.1810 H   0  0  0  0  0  0
  -23.9285   31.8969  -38.9245 H   0  0  0  0  0  0
  -25.5696   30.7089  -37.7895 H   0  0  0  0  0  0
  -24.7071   29.4498  -38.6278 H   0  0  0  0  0  0
  -26.9012   28.1349  -38.0891 H   0  0  0  0  0  0
  -24.5422   30.2731  -41.3081 H   0  0  0  0  0  0
  -23.4572   30.5678  -43.2839 H   0  0  0  0  0  0
  -21.8603   31.8145  -44.6440 H   0  0  0  0  0  0
  -20.8331   34.2090  -41.2107 H   0  0  0  0  0  0
  -22.3968   32.9508  -39.8571 H   0  0  0  0  0  0
  1  2  1  0  0  0
  1 25  1  0  0  0
  2  3  1  0  0  0
  2 26  1  0  0  0
  3  4  2  0  0  0
  3  5  1  0  0  0
  5  6  2  0  0  0
  5 14  1  0  0  0
  6  7  1  0  0  0
  6 27  1  0  0  0
  7  8  2  0  0  0
  7 28  1  0  0  0
  8  9  1  0  0  0
  8 13  1  0  0  0
  9 10  1  0  0  0
  9 29  1  0  0  0
  9 30  1  0  0  0
 10 11  1  0  0  0
 10 31  1  0  0  0
 10 32  1  0  0  0
 11 12  1  0  0  0
 11 15  1  0  0  0
 11 33  1  0  0  0
 12 13  1  0  0  0
 12 34  1  0  0  0
 12 35  1  0  0  0
 13 14  2  0  0  0
 14 36  1  0  0  0
 15 16  1  0  0  0
 15 37  1  0  0  0
 16 17  2  0  0  0
 16 21  1  0  0  0
 17 18  1  0  0  0
 17 38  1  0  0  0
 18 19  2  0  0  0
 18 39  1  0  0  0
 19 20  1  0  0  0
 19 22  1  0  0  0
 20 21  2  0  0  0
 20 40  1  0  0  0
 21 41  1  0  0  0
 22 23  2  0  0  0
 22 24  1  0  0  0
M  CHG  2  22   1  24  -1
M  END
> <s_m_entry_id>
52969

> <s_m_entry_name>
dock_pv.188

> <s_m_Source_Path>
/home/csk/Desktop/cluster/DUD-E-result/hdac8

> <s_m_Source_File>
dock_pv.maegz

> <i_m_Source_File_Index>
188

> <chembl_id>
CHEMBL3694284

> <chembl_pref_name>
None

> <i_lp_mmshare_version>
53161

> <i_f3d_flags>
0

> <r_lp_tautomer_probability>
1

> <s_lp_Force_Field>
OPLS_2005

> <r_lp_Energy>
27.907914

> <b_lp_Chiralities_Consistent>
1

> <s_lp_Variant>
CHEMBL3192_lig1028-2

> <s_i_glide_gridfile>
glide-grid_3f07

> <i_i_glide_lignum>
1096

> <i_i_glide_rotatable_bonds>
6

> <r_i_docking_score>
-7.62177729663559

> <r_i_glide_ligand_efficiency>
-0.317574054026483

> <r_i_glide_ligand_efficiency_sa>
-0.916042084950542

> <r_i_glide_ligand_efficiency_ln>
-1.82424104765564

> <r_i_glide_gscore>
-7.62177729663559

> <r_i_glide_lipo>
-1.01754596109287

> <r_i_glide_hbond>
-0.608

> <r_i_glide_metal>
-2.3

> <r_i_glide_rewards>
-1.48456809908116

> <r_i_glide_evdw>
-16.1316013336182

> <r_i_glide_ecoul>
-12.7045116424561

> <r_i_glide_erotb>
0.700593576587763

> <r_i_glide_esite>
-0.2

> <r_i_glide_emodel>
-42.6391290904858

> <r_i_glide_energy>
-28.8361129760742

> <r_i_glide_einternal>
4.36098289489746

> <i_i_glide_confnum>
35

> <i_i_glide_posenum>
226

> <r_i_glide_eff_state_penalty>
0

> <s_user_duplicate_titles>
CHEMBL3192_lig1028

> <s_m_subgroup_title>
dock_pv

> <s_m_subgroupid>
dock_pv

> <b_m_subgroup_collapsed>
1

$$$$
CHEMBL3192_lig453
                    3D
 Schrodinger Suite 2021-1.
 38 39  0  0  1  0            999 V2000
  -31.0133   24.6090  -37.6120 O   0  0  0  0  0  0
  -30.0589   25.6221  -37.4196 N   0  0  0  0  0  0
  -29.8151   26.4690  -38.4332 C   0  0  0  0  0  0
  -30.4754   26.4728  -39.4798 O   0  0  0  0  0  0
  -28.6967   27.5099  -38.2350 C   0  0  0  0  0  0
  -27.9297   27.9142  -39.5061 C   0  0  0  0  0  0
  -27.6061   29.3903  -39.6206 C   0  0  0  0  0  0
  -26.4469   29.9053  -39.0391 C   0  0  0  0  0  0
  -26.1242   31.2467  -39.2200 C   0  0  0  0  0  0
  -26.9554   32.0677  -39.9810 C   0  0  0  0  0  0
  -26.6134   33.4150  -40.1118 N   0  0  0  0  0  0
  -26.4895   34.1608  -41.7085 S   0  0  0  0  0  0
  -27.8126   34.0697  -42.3387 O   0  0  0  0  0  0
  -25.8322   35.4557  -41.5050 O   0  0  0  0  0  0
  -25.3533   33.1016  -42.6047 C   0  0  0  0  0  0
  -25.8479   32.0875  -43.4308 C   0  0  0  0  0  0
  -24.9607   31.2426  -44.0962 C   0  0  0  0  0  0
  -23.5875   31.4152  -43.9286 C   0  0  0  0  0  0
  -23.0927   32.4171  -43.0947 C   0  0  0  0  0  0
  -23.9773   33.2625  -42.4286 C   0  0  0  0  0  0
  -28.1225   31.5543  -40.5440 C   0  0  0  0  0  0
  -28.4515   30.2183  -40.3624 C   0  0  0  0  0  0
  -30.4820   23.8000  -37.6574 H   0  0  0  0  0  0
  -29.5768   25.5570  -36.5335 H   0  0  0  0  0  0
  -29.1306   28.3793  -37.7386 H   0  0  0  0  0  0
  -27.9392   27.1068  -37.5810 H   0  0  0  0  0  0
  -27.0130   27.3305  -39.6021 H   0  0  0  0  0  0
  -28.4972   27.6691  -40.3807 H   0  0  0  0  0  0
  -25.7885   29.2692  -38.4642 H   0  0  0  0  0  0
  -25.2257   31.6476  -38.7700 H   0  0  0  0  0  0
  -25.9050   33.7337  -39.4547 H   0  0  0  0  0  0
  -26.9123   31.9522  -43.5562 H   0  0  0  0  0  0
  -25.3366   30.4622  -44.7405 H   0  0  0  0  0  0
  -22.8958   30.7706  -44.4509 H   0  0  0  0  0  0
  -22.0281   32.5397  -42.9654 H   0  0  0  0  0  0
  -23.5955   34.0356  -41.7743 H   0  0  0  0  0  0
  -28.7785   32.1826  -41.1229 H   0  0  0  0  0  0
  -29.3509   29.8255  -40.8130 H   0  0  0  0  0  0
  1  2  1  0  0  0
  1 23  1  0  0  0
  2  3  1  0  0  0
  2 24  1  0  0  0
  3  4  2  0  0  0
  3  5  1  0  0  0
  5  6  1  0  0  0
  5 25  1  0  0  0
  5 26  1  0  0  0
  6  7  1  0  0  0
  6 27  1  0  0  0
  6 28  1  0  0  0
  7  8  2  0  0  0
  7 22  1  0  0  0
  8  9  1  0  0  0
  8 29  1  0  0  0
  9 10  2  0  0  0
  9 30  1  0  0  0
 10 11  1  0  0  0
 10 21  1  0  0  0
 11 12  1  0  0  0
 11 31  1  0  0  0
 12 13  2  0  0  0
 12 14  2  0  0  0
 12 15  1  0  0  0
 15 16  2  0  0  0
 15 20  1  0  0  0
 16 17  1  0  0  0
 16 32  1  0  0  0
 17 18  2  0  0  0
 17 33  1  0  0  0
 18 19  1  0  0  0
 18 34  1  0  0  0
 19 20  2  0  0  0
 19 35  1  0  0  0
 20 36  1  0  0  0
 21 22  2  0  0  0
 21 37  1  0  0  0
 22 38  1  0  0  0
M  END
> <s_m_entry_id>
52970

> <s_m_entry_name>
dock_pv.189

> <s_m_Source_Path>
/home/csk/Desktop/cluster/DUD-E-result/hdac8

> <s_m_Source_File>
dock_pv.maegz

> <i_m_Source_File_Index>
189

> <chembl_id>
CHEMBL98346

> <chembl_pref_name>
None

> <i_lp_mmshare_version>
53161

> <i_f3d_flags>
0

> <r_lp_tautomer_probability>
1

> <s_lp_Force_Field>
OPLS_2005

> <r_lp_Energy>
19.973713

> <b_lp_Chiralities_Consistent>
1

> <s_lp_Variant>
CHEMBL3192_lig453-1

> <s_i_glide_gridfile>
glide-grid_3f07

> <i_i_glide_lignum>
472

> <i_i_glide_rotatable_bonds>
8

> <r_i_docking_score>
-7.61205265718254

> <r_i_glide_ligand_efficiency>
-0.346002393508297

> <r_i_glide_ligand_efficiency_sa>
-0.969512314112217

> <r_i_glide_ligand_efficiency_ln>
-1.86066332578237

> <r_i_glide_gscore>
-7.61205265718254

> <r_i_glide_lipo>
-0.944948350319679

> <r_i_glide_hbond>
-0.432

> <r_i_glide_metal>
-2.3

> <r_i_glide_rewards>
-1.12914148866892

> <r_i_glide_evdw>
-23.666374206543

> <r_i_glide_ecoul>
-17.6478271484375

> <r_i_glide_erotb>
1.27348434627646

> <r_i_glide_esite>
-0.248954381877631

> <r_i_glide_emodel>
-64.426214512505

> <r_i_glide_energy>
-41.3142013549805

> <r_i_glide_einternal>
3.69411158561707

> <i_i_glide_confnum>
116

> <i_i_glide_posenum>
378

> <r_i_glide_eff_state_penalty>
0

> <s_user_duplicate_titles>
CHEMBL3192_lig453

> <s_m_subgroup_title>
dock_pv

> <s_m_subgroupid>
dock_pv

> <b_m_subgroup_collapsed>
1

$$$$
CHEMBL3192_lig269
                    3D
 Schrodinger Suite 2021-1.
 50 52  0  0  1  0            999 V2000
  -23.8130   31.5741  -40.9121 N   0  0  0  0  0  0
  -23.8562   30.8205  -38.8119 N   0  0  0  0  0  0
  -22.6272   31.2078  -39.0942 C   0  0  0  0  0  0
  -22.5334   31.6689  -40.3997 C   0  0  0  0  0  0
  -24.5815   31.0355  -39.8851 C   0  0  0  0  0  0
  -26.0442   30.6824  -39.9184 C   0  0  0  0  0  0
  -26.9732   31.4837  -40.5885 C   0  0  0  0  0  0
  -28.3153   31.1273  -40.6366 C   0  0  0  0  0  0
  -28.7603   29.9850  -39.9824 C   0  0  0  0  0  0
  -27.8695   29.1872  -39.2542 C   0  0  0  0  0  0
  -26.5159   29.5496  -39.2303 C   0  0  0  0  0  0
  -28.3593   28.0030  -38.5133 C   0  0  0  0  0  0
  -29.4133   27.2577  -38.9175 C   0  0  0  0  0  0
  -30.0375   26.1818  -38.1786 C   0  0  0  0  0  0
  -30.0572   26.3248  -36.8425 N   0  0  0  0  0  0
  -30.6065   25.2693  -38.7810 O   0  0  0  0  0  0
  -30.7014   25.3408  -36.0804 O   0  0  0  0  0  0
  -21.5525   31.0993  -38.0356 C   0  0  0  0  0  0
  -21.3479   32.1847  -41.1929 C   0  0  0  0  0  0
  -24.2019   31.9129  -42.2890 C   0  0  0  0  0  0
  -24.4243   30.6442  -43.1316 C   0  0  0  0  0  0
  -24.8550   30.9525  -44.5556 C   0  0  0  0  0  0
  -26.2130   30.9847  -44.8786 C   0  0  0  0  0  0
  -26.6124   31.2692  -46.1818 C   0  0  0  0  0  0
  -25.6499   31.5249  -47.1565 C   0  0  0  0  0  0
  -24.2925   31.4956  -46.8402 C   0  0  0  0  0  0
  -23.8934   31.2069  -45.5376 C   0  0  0  0  0  0
  -26.6813   32.4090  -41.0524 H   0  0  0  0  0  0
  -29.0135   31.7462  -41.1754 H   0  0  0  0  0  0
  -29.8129   29.7472  -40.0216 H   0  0  0  0  0  0
  -25.8137   28.9386  -38.6812 H   0  0  0  0  0  0
  -27.8559   27.7805  -37.5822 H   0  0  0  0  0  0
  -29.8631   27.4585  -39.8769 H   0  0  0  0  0  0
  -29.5886   27.0292  -36.2819 H   0  0  0  0  0  0
  -29.9787   24.8691  -35.6557 H   0  0  0  0  0  0
  -20.5920   31.4812  -38.3786 H   0  0  0  0  0  0
  -21.8121   31.6682  -37.1425 H   0  0  0  0  0  0
  -21.3931   30.0692  -37.7224 H   0  0  0  0  0  0
  -20.4157   32.1102  -40.6336 H   0  0  0  0  0  0
  -21.2034   31.6257  -42.1178 H   0  0  0  0  0  0
  -21.4697   33.2347  -41.4604 H   0  0  0  0  0  0
  -25.0739   32.5569  -42.2760 H   0  0  0  0  0  0
  -23.4126   32.5159  -42.7370 H   0  0  0  0  0  0
  -23.5007   30.0690  -43.1810 H   0  0  0  0  0  0
  -25.1677   29.9959  -42.6649 H   0  0  0  0  0  0
  -26.9610   30.7940  -44.1225 H   0  0  0  0  0  0
  -27.6626   31.2942  -46.4352 H   0  0  0  0  0  0
  -25.9603   31.7502  -48.1664 H   0  0  0  0  0  0
  -23.5526   31.6977  -47.6009 H   0  0  0  0  0  0
  -22.8403   31.1876  -45.2938 H   0  0  0  0  0  0
  1  4  1  0  0  0
  1  5  1  0  0  0
  1 20  1  0  0  0
  2  3  1  0  0  0
  2  5  2  0  0  0
  3  4  2  0  0  0
  3 18  1  0  0  0
  4 19  1  0  0  0
  5  6  1  0  0  0
  6  7  2  0  0  0
  6 11  1  0  0  0
  7  8  1  0  0  0
  7 28  1  0  0  0
  8  9  2  0  0  0
  8 29  1  0  0  0
  9 10  1  0  0  0
  9 30  1  0  0  0
 10 11  2  0  0  0
 10 12  1  0  0  0
 11 31  1  0  0  0
 12 13  2  0  0  0
 12 32  1  0  0  0
 13 14  1  0  0  0
 13 33  1  0  0  0
 14 15  1  0  0  0
 14 16  2  0  0  0
 15 17  1  0  0  0
 15 34  1  0  0  0
 17 35  1  0  0  0
 18 36  1  0  0  0
 18 37  1  0  0  0
 18 38  1  0  0  0
 19 39  1  0  0  0
 19 40  1  0  0  0
 19 41  1  0  0  0
 20 21  1  0  0  0
 20 42  1  0  0  0
 20 43  1  0  0  0
 21 22  1  0  0  0
 21 44  1  0  0  0
 21 45  1  0  0  0
 22 23  2  0  0  0
 22 27  1  0  0  0
 23 24  1  0  0  0
 23 46  1  0  0  0
 24 25  2  0  0  0
 24 47  1  0  0  0
 25 26  1  0  0  0
 25 48  1  0  0  0
 26 27  2  0  0  0
 26 49  1  0  0  0
 27 50  1  0  0  0
M  END
> <s_m_entry_id>
52971

> <s_m_entry_name>
dock_pv.190

> <s_m_Source_Path>
/home/csk/Desktop/cluster/DUD-E-result/hdac8

> <s_m_Source_File>
dock_pv.maegz

> <i_m_Source_File_Index>
190

> <chembl_id>
CHEMBL1095719

> <chembl_pref_name>
None

> <i_lp_mmshare_version>
53161

> <i_f3d_flags>
0

> <r_lp_tautomer_probability>
1

> <s_lp_Force_Field>
OPLS_2005

> <r_lp_Energy>
22.685103

> <b_lp_Chiralities_Consistent>
1

> <s_lp_Variant>
CHEMBL3192_lig269-1

> <s_i_glide_gridfile>
glide-grid_3f07

> <i_i_glide_lignum>
282

> <i_i_glide_rotatable_bonds>
8

> <r_i_docking_score>
-7.60877446381843

> <r_i_glide_ligand_efficiency>
-0.281806461622905

> <r_i_glide_ligand_efficiency_sa>
-0.845419383939927

> <r_i_glide_ligand_efficiency_ln>
-1.77119725472619

> <r_i_glide_gscore>
-7.60877446381843

> <r_i_glide_lipo>
-1.55851924516441

> <r_i_glide_hbond>
-0.32

> <r_i_glide_metal>
-2.3

> <r_i_glide_rewards>
-1.23256102942811

> <r_i_glide_evdw>
-38.5288162231445

> <r_i_glide_ecoul>
-7.83291101455688

> <r_i_glide_erotb>
1.02829866449053

> <r_i_glide_esite>
-0.124615390375681

> <r_i_glide_emodel>
-70.5250811822991

> <r_i_glide_energy>
-46.3617272377014

> <r_i_glide_einternal>
4.97039985656738

> <i_i_glide_confnum>
23

> <i_i_glide_posenum>
365

> <r_i_glide_eff_state_penalty>
0

> <s_user_duplicate_titles>
CHEMBL3192_lig269,625972

> <s_m_subgroup_title>
dock_pv

> <s_m_subgroupid>
dock_pv

> <b_m_subgroup_collapsed>
1

$$$$
CHEMBL3192_lig818
                    3D
 Schrodinger Suite 2021-1.
 45 47  0  0  1  0            999 V2000
  -23.7482   32.5380  -41.0129 C   0  0  0  0  0  0
  -24.4897   31.3007  -41.2412 N   0  0  0  0  0  0
  -24.9188   31.1146  -42.6352 C   0  0  2  0  0  0
  -25.5383   32.3522  -43.3445 C   0  0  0  0  0  0
  -26.0364   32.1148  -44.7929 C   0  0  0  0  0  0
  -24.9850   31.8354  -45.8720 C   0  0  0  0  0  0
  -23.6071   31.9215  -45.6278 C   0  0  0  0  0  0
  -22.6959   31.6690  -46.6500 C   0  0  0  0  0  0
  -23.1571   31.3416  -47.9222 C   0  0  0  0  0  0
  -24.5235   31.2690  -48.1819 C   0  0  0  0  0  0
  -25.4344   31.5116  -47.1563 C   0  0  0  0  0  0
  -25.9067   30.0530  -42.4705 N   0  0  0  0  0  0
  -26.2568   29.9875  -41.1247 C   0  0  0  0  0  0
  -27.2156   29.1854  -40.5030 C   0  0  0  0  0  0
  -27.4142   29.2469  -39.1182 C   0  0  0  0  0  0
  -28.4203   28.4056  -38.4242 C   0  0  0  0  0  0
  -28.7849   27.1515  -38.7810 C   0  0  0  0  0  0
  -29.8130   26.3703  -38.1239 C   0  0  0  0  0  0
  -30.5871   25.6690  -38.7810 O   0  0  0  0  0  0
  -29.8589   26.4690  -36.7857 N   0  0  0  0  0  0
  -30.8279   25.7303  -36.0923 O   0  0  0  0  0  0
  -26.6130   30.1253  -38.3810 C   0  0  0  0  0  0
  -25.6090   30.8809  -38.9854 C   0  0  0  0  0  0
  -25.4505   30.8146  -40.3665 C   0  0  0  0  0  0
  -23.3055   32.5339  -40.0156 H   0  0  0  0  0  0
  -22.9369   32.6493  -41.7332 H   0  0  0  0  0  0
  -24.3990   33.4108  -41.0757 H   0  0  0  0  0  0
  -24.0732   30.7279  -43.2037 H   0  0  0  0  0  0
  -26.3771   32.7122  -42.7463 H   0  0  0  0  0  0
  -24.8281   33.1790  -43.3589 H   0  0  0  0  0  0
  -26.7639   31.3017  -44.7989 H   0  0  0  0  0  0
  -26.5862   33.0015  -45.1124 H   0  0  0  0  0  0
  -23.2217   32.1888  -44.6562 H   0  0  0  0  0  0
  -21.6343   31.7266  -46.4552 H   0  0  0  0  0  0
  -22.4477   31.1499  -48.7141 H   0  0  0  0  0  0
  -24.8760   31.0257  -49.1732 H   0  0  0  0  0  0
  -26.4935   31.4537  -47.3638 H   0  0  0  0  0  0
  -26.5242   30.0686  -43.2677 H   0  0  0  0  0  0
  -27.8131   28.5171  -41.0935 H   0  0  0  0  0  0
  -28.9111   28.8690  -37.5811 H   0  0  0  0  0  0
  -28.3055   26.6595  -39.6108 H   0  0  0  0  0  0
  -29.2323   26.9983  -36.1797 H   0  0  0  0  0  0
  -30.3207   25.0378  -35.6583 H   0  0  0  0  0  0
  -26.7510   30.2213  -37.3176 H   0  0  0  0  0  0
  -24.9708   31.5104  -38.3816 H   0  0  0  0  0  0
  1  2  1  0  0  0
  1 25  1  0  0  0
  1 26  1  0  0  0
  1 27  1  0  0  0
  2  3  1  0  0  0
  2 24  1  0  0  0
  3  4  1  0  0  0
  3 12  1  0  0  0
  3 28  1  0  0  0
  4  5  1  0  0  0
  4 29  1  0  0  0
  4 30  1  0  0  0
  5  6  1  0  0  0
  5 31  1  0  0  0
  5 32  1  0  0  0
  6  7  2  0  0  0
  6 11  1  0  0  0
  7  8  1  0  0  0
  7 33  1  0  0  0
  8  9  2  0  0  0
  8 34  1  0  0  0
  9 10  1  0  0  0
  9 35  1  0  0  0
 10 11  2  0  0  0
 10 36  1  0  0  0
 11 37  1  0  0  0
 12 13  1  0  0  0
 12 38  1  0  0  0
 13 14  2  0  0  0
 13 24  1  0  0  0
 14 15  1  0  0  0
 14 39  1  0  0  0
 15 16  1  0  0  0
 15 22  2  0  0  0
 16 17  2  0  0  0
 16 40  1  0  0  0
 17 18  1  0  0  0
 17 41  1  0  0  0
 18 19  2  0  0  0
 18 20  1  0  0  0
 20 21  1  0  0  0
 20 42  1  0  0  0
 21 43  1  0  0  0
 22 23  1  0  0  0
 22 44  1  0  0  0
 23 24  2  0  0  0
 23 45  1  0  0  0
M  END
> <s_m_entry_id>
52972

> <s_m_entry_name>
dock_pv.191

> <s_m_Source_Path>
/home/csk/Desktop/cluster/DUD-E-result/hdac8

> <s_m_Source_File>
dock_pv.maegz

> <i_m_Source_File_Index>
191

> <chembl_id>
CHEMBL3648272

> <chembl_pref_name>
None

> <i_lp_mmshare_version>
53161

> <i_f3d_flags>
0

> <r_lp_tautomer_probability>
1

> <s_lp_Force_Field>
OPLS_2005

> <r_lp_Energy>
38.624959

> <b_lp_Chiralities_Consistent>
1

> <s_lp_Variant>
CHEMBL3192_lig818-1

> <s_i_glide_gridfile>
glide-grid_3f07

> <i_i_glide_lignum>
872

> <i_i_glide_rotatable_bonds>
7

> <r_i_docking_score>
-7.60831150496455

> <r_i_glide_ligand_efficiency>
-0.317012979373523

> <r_i_glide_ligand_efficiency_sa>
-0.914423665597973

> <r_i_glide_ligand_efficiency_ln>
-1.82101806580384

> <r_i_glide_gscore>
-7.60831150496455

> <r_i_glide_lipo>
-1.20935220020704

> <r_i_glide_hbond>
-0.32

> <r_i_glide_metal>
-2.3

> <r_i_glide_rewards>
-1.37916627825129

> <r_i_glide_evdw>
-30.8407516479492

> <r_i_glide_ecoul>
-12.0448474884033

> <r_i_glide_erotb>
1.07362511674986

> <r_i_glide_esite>
-0.124653437598122

> <r_i_glide_emodel>
-63.4559528107142

> <r_i_glide_energy>
-42.8855991363525

> <r_i_glide_einternal>
5.78414106369019

> <i_i_glide_confnum>
22

> <i_i_glide_posenum>
288

> <r_i_glide_eff_state_penalty>
0

> <s_user_duplicate_titles>
CHEMBL3192_lig818

> <s_m_subgroup_title>
dock_pv

> <s_m_subgroupid>
dock_pv

> <b_m_subgroup_collapsed>
1

$$$$
CHEMBL3192_lig488
                    3D
 Schrodinger Suite 2021-1.
 23 23  0  0  1  0            999 V2000
  -29.8094   26.4690  -38.3325 C   0  0  0  0  0  0
  -30.6130   26.0690  -39.1810 O   0  0  0  0  0  0
  -29.9589   26.2924  -37.0112 N   0  0  0  0  0  0
  -31.0877   25.6030  -36.5487 O   0  0  0  0  0  0
  -25.4029   30.8955  -40.4998 C   0  0  0  0  0  0
  -25.5227   30.4804  -39.1760 C   0  0  0  0  0  0
  -26.6470   29.7612  -38.7810 C   0  0  0  0  0  0
  -27.6489   29.4563  -39.7043 C   0  0  0  0  0  0
  -27.5247   29.8863  -41.0282 C   0  0  0  0  0  0
  -26.3992   30.6019  -41.4285 C   0  0  0  0  0  0
  -28.8814   28.6798  -39.2563 C   0  0  0  0  0  0
  -28.5619   27.2422  -38.7827 C   0  0  0  0  0  0
  -29.3588   26.6402  -36.2697 H   0  0  0  0  0  0
  -31.6152   26.2852  -36.1231 H   0  0  0  0  0  0
  -24.5316   31.4573  -40.8042 H   0  0  0  0  0  0
  -24.7494   30.7217  -38.4605 H   0  0  0  0  0  0
  -26.7442   29.4464  -37.7537 H   0  0  0  0  0  0
  -28.2967   29.6690  -41.7502 H   0  0  0  0  0  0
  -26.3007   30.9337  -42.4518 H   0  0  0  0  0  0
  -29.6067   28.6611  -40.0714 H   0  0  0  0  0  0
  -29.3447   29.2494  -38.4478 H   0  0  0  0  0  0
  -27.8260   27.2691  -37.9786 H   0  0  0  0  0  0
  -28.0748   26.6815  -39.5810 H   0  0  0  0  0  0
  1  3  1  0  0  0
  1  2  2  0  0  0
  1 12  1  0  0  0
  3  4  1  0  0  0
  3 13  1  0  0  0
  4 14  1  0  0  0
  5 10  1  0  0  0
  5  6  2  0  0  0
  5 15  1  0  0  0
  6  7  1  0  0  0
  6 16  1  0  0  0
  7  8  2  0  0  0
  7 17  1  0  0  0
  8  9  1  0  0  0
  8 11  1  0  0  0
  9 10  2  0  0  0
  9 18  1  0  0  0
 10 19  1  0  0  0
 11 12  1  0  0  0
 11 20  1  0  0  0
 11 21  1  0  0  0
 12 22  1  0  0  0
 12 23  1  0  0  0
M  END
> <s_m_entry_id>
52973

> <s_m_entry_name>
dock_pv.192

> <s_m_Source_Path>
/home/csk/Desktop/cluster/DUD-E-result/hdac8

> <s_m_Source_File>
dock_pv.maegz

> <i_m_Source_File_Index>
192

> <chembl_id>
CHEMBL152162

> <chembl_pref_name>
None

> <i_lp_mmshare_version>
53161

> <i_f3d_flags>
0

> <r_lp_tautomer_probability>
1

> <s_lp_Force_Field>
OPLS_2005

> <r_lp_Energy>
11.150051

> <b_lp_Chiralities_Consistent>
1

> <s_lp_Variant>
CHEMBL3192_lig488-1

> <s_i_glide_gridfile>
glide-grid_3f07

> <i_i_glide_lignum>
509

> <i_i_glide_rotatable_bonds>
5

> <r_i_docking_score>
-7.60631123176861

> <r_i_glide_ligand_efficiency>
-0.633859269314051

> <r_i_glide_ligand_efficiency_sa>
-1.45117546551447

> <r_i_glide_ligand_efficiency_ln>
-2.18264418423699

> <r_i_glide_gscore>
-7.60631123176861

> <r_i_glide_lipo>
-0.993631193250111

> <r_i_glide_hbond>
-0.529928722433021

> <r_i_glide_metal>
-2.3

> <r_i_glide_rewards>
-2.46666662804306

> <r_i_glide_evdw>
-21.2908115386963

> <r_i_glide_ecoul>
-12.0490636825562

> <r_i_glide_erotb>
1.67783833161886

> <r_i_glide_esite>
-0.122022890343036

> <r_i_glide_emodel>
-53.2627322841191

> <r_i_glide_energy>
-33.3398752212524

> <r_i_glide_einternal>
2.67310118675232

> <i_i_glide_confnum>
1

> <i_i_glide_posenum>
344

> <r_i_glide_eff_state_penalty>
0

> <s_user_duplicate_titles>
CHEMBL3192_lig488

> <s_m_subgroup_title>
dock_pv

> <s_m_subgroupid>
dock_pv

> <b_m_subgroup_collapsed>
1

$$$$
CHEMBL3192_lig275
                    3D
 Schrodinger Suite 2021-1.
 60 63  0  0  1  0            999 V2000
  -25.1655   32.7682  -46.3725 C   0  0  0  0  0  0
  -26.4951   32.6876  -46.7988 C   0  0  0  0  0  0
  -26.8210   31.9322  -47.9217 C   0  0  0  0  0  0
  -25.8164   31.2687  -48.6223 C   0  0  0  0  0  0
  -24.4885   31.3466  -48.2057 C   0  0  0  0  0  0
  -24.1634   32.0923  -47.0755 C   0  0  0  0  0  0
  -24.8005   33.6142  -45.1589 C   0  0  0  0  0  0
  -24.3560   32.7827  -43.9643 C   0  0  0  0  0  0
  -25.2097   32.1805  -43.0640 N   0  0  0  0  0  0
  -23.0863   31.8342  -42.5796 C   0  0  0  0  0  0
  -23.0972   32.5610  -43.6817 N   0  0  0  0  0  0
  -24.3845   31.5315  -42.1565 C   0  0  0  0  0  0
  -24.8729   30.7926  -40.9487 C   0  0  0  0  0  0
  -24.3310   31.1185  -39.7027 C   0  0  0  0  0  0
  -24.8974   30.6109  -38.5371 C   0  0  0  0  0  0
  -26.0312   29.8055  -38.6037 C   0  0  0  0  0  0
  -26.5618   29.4301  -39.8350 C   0  0  0  0  0  0
  -25.9535   29.8984  -41.0062 C   0  0  0  0  0  0
  -27.7492   28.5719  -39.9019 C   0  0  0  0  0  0
  -28.0922   27.6048  -39.0166 C   0  0  0  0  0  0
  -29.3209   26.8696  -39.1736 C   0  0  0  0  0  0
  -29.4130   25.7067  -38.5123 N   0  0  0  0  0  0
  -30.2136   27.2675  -39.9168 O   0  0  0  0  0  0
  -30.5135   24.8724  -38.7809 O   0  0  0  0  0  0
  -21.7526   31.4666  -41.9664 C   0  0  0  0  0  0
  -26.6794   32.1976  -43.0986 C   0  0  0  0  0  0
  -27.3264   32.6601  -41.7643 C   0  0  0  0  0  0
  -27.6706   34.1329  -41.6114 C   0  0  0  0  0  0
  -28.2935   34.8605  -42.6323 C   0  0  0  0  0  0
  -28.6652   36.1849  -42.4129 C   0  0  0  0  0  0
  -28.4275   36.7713  -41.1716 C   0  0  0  0  0  0
  -27.8153   36.0446  -40.1530 C   0  0  0  0  0  0
  -27.4262   34.7343  -40.3757 C   0  0  0  0  0  0
  -27.2766   33.2124  -46.2692 H   0  0  0  0  0  0
  -27.8464   31.8664  -48.2546 H   0  0  0  0  0  0
  -26.0724   30.6927  -49.4988 H   0  0  0  0  0  0
  -23.7128   30.8352  -48.7563 H   0  0  0  0  0  0
  -23.1344   32.1534  -46.7505 H   0  0  0  0  0  0
  -25.6156   34.2911  -44.8989 H   0  0  0  0  0  0
  -23.9792   34.2640  -45.4657 H   0  0  0  0  0  0
  -23.5091   31.8167  -39.6238 H   0  0  0  0  0  0
  -24.4802   30.8819  -37.5810 H   0  0  0  0  0  0
  -26.5137   29.4741  -37.6967 H   0  0  0  0  0  0
  -26.3615   29.6158  -41.9638 H   0  0  0  0  0  0
  -28.3999   28.7951  -40.7371 H   0  0  0  0  0  0
  -27.4624   27.3439  -38.1768 H   0  0  0  0  0  0
  -28.6275   25.2116  -38.0937 H   0  0  0  0  0  0
  -30.5939   24.3350  -37.9805 H   0  0  0  0  0  0
  -21.8570   30.8700  -41.0610 H   0  0  0  0  0  0
  -21.1363   30.8918  -42.6589 H   0  0  0  0  0  0
  -21.1825   32.3543  -41.6901 H   0  0  0  0  0  0
  -27.0160   32.8066  -43.9321 H   0  0  0  0  0  0
  -27.0010   31.1875  -43.3470 H   0  0  0  0  0  0
  -28.2130   32.0668  -41.5738 H   0  0  0  0  0  0
  -26.6920   32.4217  -40.9185 H   0  0  0  0  0  0
  -28.5105   34.4072  -43.5879 H   0  0  0  0  0  0
  -29.1441   36.7520  -43.1978 H   0  0  0  0  0  0
  -28.7187   37.7966  -40.9935 H   0  0  0  0  0  0
  -27.6343   36.4690  -39.1797 H   0  0  0  0  0  0
  -26.9458   34.1901  -39.5727 H   0  0  0  0  0  0
  1  6  1  0  0  0
  1  2  2  0  0  0
  1  7  1  0  0  0
  2  3  1  0  0  0
  2 34  1  0  0  0
  3  4  2  0  0  0
  3 35  1  0  0  0
  4  5  1  0  0  0
  4 36  1  0  0  0
  5  6  2  0  0  0
  5 37  1  0  0  0
  6 38  1  0  0  0
  7  8  1  0  0  0
  7 39  1  0  0  0
  7 40  1  0  0  0
  8 11  2  0  0  0
  8  9  1  0  0  0
  9 12  1  0  0  0
  9 26  1  0  0  0
 10 11  1  0  0  0
 10 25  1  0  0  0
 10 12  2  0  0  0
 12 13  1  0  0  0
 13 18  1  0  0  0
 13 14  2  0  0  0
 14 15  1  0  0  0
 14 41  1  0  0  0
 15 16  2  0  0  0
 15 42  1  0  0  0
 16 17  1  0  0  0
 16 43  1  0  0  0
 17 18  2  0  0  0
 17 19  1  0  0  0
 18 44  1  0  0  0
 19 20  2  0  0  0
 19 45  1  0  0  0
 20 21  1  0  0  0
 20 46  1  0  0  0
 21 22  1  0  0  0
 21 23  2  0  0  0
 22 24  1  0  0  0
 22 47  1  0  0  0
 24 48  1  0  0  0
 25 49  1  0  0  0
 25 50  1  0  0  0
 25 51  1  0  0  0
 26 27  1  0  0  0
 26 52  1  0  0  0
 26 53  1  0  0  0
 27 28  1  0  0  0
 27 54  1  0  0  0
 27 55  1  0  0  0
 28 29  2  0  0  0
 28 33  1  0  0  0
 29 30  1  0  0  0
 29 56  1  0  0  0
 30 31  2  0  0  0
 30 57  1  0  0  0
 31 32  1  0  0  0
 31 58  1  0  0  0
 32 33  2  0  0  0
 32 59  1  0  0  0
 33 60  1  0  0  0
M  END
> <s_m_entry_id>
52974

> <s_m_entry_name>
dock_pv.193

> <s_m_Source_Path>
/home/csk/Desktop/cluster/DUD-E-result/hdac8

> <s_m_Source_File>
dock_pv.maegz

> <i_m_Source_File_Index>
193

> <chembl_id>
CHEMBL1094094

> <chembl_pref_name>
None

> <i_lp_mmshare_version>
53161

> <i_f3d_flags>
0

> <r_lp_tautomer_probability>
1

> <s_lp_Force_Field>
OPLS_2005

> <r_lp_Energy>
27.554109

> <b_lp_Chiralities_Consistent>
1

> <s_lp_Variant>
CHEMBL3192_lig275-1

> <s_i_glide_gridfile>
glide-grid_3f07

> <i_i_glide_lignum>
288

> <i_i_glide_rotatable_bonds>
10

> <r_i_docking_score>
-7.60596354180295

> <r_i_glide_ligand_efficiency>
-0.230483743690998

> <r_i_glide_ligand_efficiency_sa>
-0.739284519533199

> <r_i_glide_ligand_efficiency_ln>
-1.69152691012541

> <r_i_glide_gscore>
-7.60596354180295

> <r_i_glide_lipo>
-1.07460247557037

> <r_i_glide_hbond>
-0.583787386494028

> <r_i_glide_metal>
-2.3

> <r_i_glide_rewards>
-0.499921879295048

> <r_i_glide_evdw>
-16.1402645111084

> <r_i_glide_ecoul>
-20.5212345123291

> <r_i_glide_erotb>
0.937546601961282

> <r_i_glide_esite>
-0.2

> <r_i_glide_emodel>
-52.6750674816929

> <r_i_glide_energy>
-36.6614990234375

> <r_i_glide_einternal>
11.5484476089478

> <i_i_glide_confnum>
19

> <i_i_glide_posenum>
326

> <r_i_glide_eff_state_penalty>
0

> <s_user_duplicate_titles>
CHEMBL3192_lig275,626059

> <s_m_subgroup_title>
dock_pv

> <s_m_subgroupid>
dock_pv

> <b_m_subgroup_collapsed>
1

$$$$
CHEMBL3192_lig1044
                    3D
 Schrodinger Suite 2021-1.
 50 53  0  0  1  0            999 V2000
  -30.2133   25.4040  -37.2733 O   0  0  0  0  0  0
  -29.4130   26.5369  -37.5209 N   0  0  0  0  0  0
  -29.4130   27.0656  -38.7484 C   0  0  0  0  0  0
  -30.2378   26.7068  -39.5810 O   0  0  0  0  0  0
  -28.4377   28.1870  -39.0357 C   0  0  0  0  0  0
  -27.2196   28.2316  -38.3810 C   0  0  0  0  0  0
  -26.3145   29.2690  -38.5713 C   0  0  0  0  0  0
  -26.5669   30.2826  -39.4773 C   0  0  0  0  0  0
  -25.4989   31.3480  -39.7241 C   0  0  0  0  0  0
  -26.0766   32.6116  -40.3810 C   0  0  0  0  0  0
  -26.9736   32.2686  -41.5773 C   0  0  2  0  0  0
  -28.1486   31.3628  -41.1373 C   0  0  0  0  0  0
  -27.7896   30.2537  -40.1751 C   0  0  0  0  0  0
  -28.7066   29.2117  -39.9493 C   0  0  0  0  0  0
  -26.1886   31.6129  -42.6282 N   0  0  0  0  0  0
  -26.4097   31.8298  -43.9965 C   0  0  0  0  0  0
  -25.7666   30.9766  -44.8310 N   0  0  0  0  0  0
  -25.9859   31.1476  -46.1588 C   0  0  0  0  0  0
  -26.8386   32.1309  -46.6613 C   0  0  0  0  0  0
  -27.4567   32.9864  -45.7375 C   0  0  0  0  0  0
  -27.2315   32.8377  -44.4004 N   0  0  0  0  0  0
  -28.4112   34.0693  -46.1445 C   0  0  0  0  0  0
  -29.3613   34.5733  -45.2432 C   0  0  0  0  0  0
  -30.2647   35.5601  -45.6237 C   0  0  0  0  0  0
  -30.2402   36.0691  -46.9240 C   0  0  0  0  0  0
  -29.2845   35.5956  -47.8261 C   0  0  0  0  0  0
  -28.3831   34.6071  -47.4393 C   0  0  0  0  0  0
  -31.2421   37.1382  -47.3593 C   0  0  0  0  0  0
  -31.7200   37.8212  -46.3170 F   0  0  0  0  0  0
  -30.6776   38.0094  -48.1975 F   0  0  0  0  0  0
  -32.2638   36.5500  -47.9813 F   0  0  0  0  0  0
  -29.5822   24.6761  -37.2201 H   0  0  0  0  0  0
  -28.8417   26.8142  -36.7270 H   0  0  0  0  0  0
  -26.9904   27.4616  -37.6611 H   0  0  0  0  0  0
  -25.3780   29.2627  -38.0320 H   0  0  0  0  0  0
  -25.0024   31.6181  -38.7899 H   0  0  0  0  0  0
  -24.7248   30.9229  -40.3642 H   0  0  0  0  0  0
  -26.6496   33.1730  -39.6412 H   0  0  0  0  0  0
  -25.2650   33.2751  -40.6846 H   0  0  0  0  0  0
  -27.3899   33.1965  -41.9716 H   0  0  0  0  0  0
  -28.6130   30.8690  -41.9810 H   0  0  0  0  0  0
  -28.9130   31.9795  -40.6679 H   0  0  0  0  0  0
  -29.6469   29.2220  -40.4826 H   0  0  0  0  0  0
  -25.6564   30.7959  -42.3700 H   0  0  0  0  0  0
  -25.4735   30.4690  -46.8232 H   0  0  0  0  0  0
  -27.0104   32.2090  -47.7241 H   0  0  0  0  0  0
  -29.4132   34.1917  -44.2349 H   0  0  0  0  0  0
  -30.9920   35.9150  -44.9079 H   0  0  0  0  0  0
  -29.2464   35.9816  -48.8347 H   0  0  0  0  0  0
  -27.6596   34.2667  -48.1642 H   0  0  0  0  0  0
  1  2  1  0  0  0
  1 32  1  0  0  0
  2  3  1  0  0  0
  2 33  1  0  0  0
  3  4  2  0  0  0
  3  5  1  0  0  0
  5  6  2  0  0  0
  5 14  1  0  0  0
  6  7  1  0  0  0
  6 34  1  0  0  0
  7  8  2  0  0  0
  7 35  1  0  0  0
  8  9  1  0  0  0
  8 13  1  0  0  0
  9 10  1  0  0  0
  9 36  1  0  0  0
  9 37  1  0  0  0
 10 11  1  0  0  0
 10 38  1  0  0  0
 10 39  1  0  0  0
 11 12  1  0  0  0
 11 15  1  0  0  0
 11 40  1  0  0  0
 12 13  1  0  0  0
 12 41  1  0  0  0
 12 42  1  0  0  0
 13 14  2  0  0  0
 14 43  1  0  0  0
 15 16  1  0  0  0
 15 44  1  0  0  0
 16 17  2  0  0  0
 16 21  1  0  0  0
 17 18  1  0  0  0
 18 19  2  0  0  0
 18 45  1  0  0  0
 19 20  1  0  0  0
 19 46  1  0  0  0
 20 21  2  0  0  0
 20 22  1  0  0  0
 22 23  2  0  0  0
 22 27  1  0  0  0
 23 24  1  0  0  0
 23 47  1  0  0  0
 24 25  2  0  0  0
 24 48  1  0  0  0
 25 26  1  0  0  0
 25 28  1  0  0  0
 26 27  2  0  0  0
 26 49  1  0  0  0
 27 50  1  0  0  0
 28 29  1  0  0  0
 28 30  1  0  0  0
 28 31  1  0  0  0
M  END
> <s_m_entry_id>
52975

> <s_m_entry_name>
dock_pv.194

> <s_m_Source_Path>
/home/csk/Desktop/cluster/DUD-E-result/hdac8

> <s_m_Source_File>
dock_pv.maegz

> <i_m_Source_File_Index>
194

> <chembl_id>
CHEMBL3694293

> <chembl_pref_name>
None

> <i_lp_mmshare_version>
53161

> <i_f3d_flags>
0

> <r_lp_tautomer_probability>
0.999999987636

> <s_lp_Force_Field>
OPLS_2005

> <r_lp_Energy>
25.018714

> <b_lp_Chiralities_Consistent>
1

> <s_lp_Variant>
CHEMBL3192_lig1044-1

> <s_i_glide_gridfile>
glide-grid_3f07

> <i_i_glide_lignum>
1127

> <i_i_glide_rotatable_bonds>
7

> <r_i_docking_score>
-7.60150486816388

> <r_i_glide_ligand_efficiency>
-0.245209834456899

> <r_i_glide_ligand_efficiency_sa>
-0.770297428857269

> <r_i_glide_ligand_efficiency_ln>
-1.71437230591795

> <r_i_glide_gscore>
-7.60150486816388

> <r_i_glide_lipo>
-1.31532622405641

> <r_i_glide_hbond>
-0.608

> <r_i_glide_metal>
-2.3

> <r_i_glide_rewards>
-0.737292675248092

> <r_i_glide_evdw>
-23.1566162109375

> <r_i_glide_ecoul>
-12.1651992797852

> <r_i_glide_erotb>
0.541141500307807

> <r_i_glide_esite>
-0.199416766652532

> <r_i_glide_emodel>
-52.0014488298562

> <r_i_glide_energy>
-35.3218154907227

> <r_i_glide_einternal>
2.39260268211365

> <i_i_glide_confnum>
55

> <i_i_glide_posenum>
2

> <r_i_glide_eff_state_penalty>
0

> <s_user_duplicate_titles>
CHEMBL3192_lig1044

> <s_m_subgroup_title>
dock_pv

> <s_m_subgroupid>
dock_pv

> <b_m_subgroup_collapsed>
1

$$$$
CHEMBL3192_lig818
                    3D
 Schrodinger Suite 2021-1.
 45 47  0  0  1  0            999 V2000
  -23.9913   32.4384  -40.3545 C   0  0  0  0  0  0
  -25.4379   32.2462  -40.3810 N   0  0  0  0  0  0
  -26.1032   32.8863  -41.5203 C   0  0  1  0  0  0
  -25.4660   32.7293  -42.9272 C   0  0  0  0  0  0
  -25.3028   31.2828  -43.4526 C   0  0  0  0  0  0
  -24.8197   31.2547  -44.8937 C   0  0  0  0  0  0
  -25.7494   31.2690  -45.9375 C   0  0  0  0  0  0
  -25.3103   31.2883  -47.2586 C   0  0  0  0  0  0
  -23.9431   31.2900  -47.5304 C   0  0  0  0  0  0
  -23.0130   31.2690  -46.4935 C   0  0  0  0  0  0
  -23.4507   31.2504  -45.1721 C   0  0  0  0  0  0
  -27.4130   32.2487  -41.4648 N   0  0  0  0  0  0
  -27.3138   31.1269  -40.6480 C   0  0  0  0  0  0
  -28.2749   30.1496  -40.4023 C   0  0  0  0  0  0
  -28.0132   29.1197  -39.4889 C   0  0  0  0  0  0
  -29.0351   28.0761  -39.3039 C   0  0  0  0  0  0
  -29.0969   27.1286  -38.3414 C   0  0  0  0  0  0
  -30.1812   26.1728  -38.2709 C   0  0  0  0  0  0
  -31.0129   26.0690  -39.1810 O   0  0  0  0  0  0
  -30.2130   25.4430  -37.1449 N   0  0  0  0  0  0
  -31.2154   24.4690  -37.0120 O   0  0  0  0  0  0
  -26.8041   29.1321  -38.7810 C   0  0  0  0  0  0
  -25.8478   30.1228  -39.0174 C   0  0  0  0  0  0
  -26.1018   31.0961  -39.9826 C   0  0  0  0  0  0
  -23.5799   32.0690  -39.4145 H   0  0  0  0  0  0
  -23.4942   31.9095  -41.1670 H   0  0  0  0  0  0
  -23.7426   33.4985  -40.4202 H   0  0  0  0  0  0
  -26.2119   33.9484  -41.2945 H   0  0  0  0  0  0
  -26.0796   33.2903  -43.6338 H   0  0  0  0  0  0
  -24.4968   33.2295  -42.9407 H   0  0  0  0  0  0
  -24.6132   30.7180  -42.8242 H   0  0  0  0  0  0
  -26.2476   30.7405  -43.3964 H   0  0  0  0  0  0
  -26.8093   31.2782  -45.7270 H   0  0  0  0  0  0
  -26.0267   31.3075  -48.0670 H   0  0  0  0  0  0
  -23.6001   31.3096  -48.5544 H   0  0  0  0  0  0
  -21.9541   31.2690  -46.7110 H   0  0  0  0  0  0
  -22.7268   31.2477  -44.3698 H   0  0  0  0  0  0
  -27.8130   32.2872  -42.3899 H   0  0  0  0  0  0
  -29.2165   30.1832  -40.9311 H   0  0  0  0  0  0
  -29.8130   28.1034  -40.0511 H   0  0  0  0  0  0
  -28.3372   27.0682  -37.5810 H   0  0  0  0  0  0
  -29.5664   25.4642  -36.3677 H   0  0  0  0  0  0
  -30.7519   23.6395  -37.1810 H   0  0  0  0  0  0
  -26.5940   28.3707  -38.0459 H   0  0  0  0  0  0
  -24.9264   30.1287  -38.4537 H   0  0  0  0  0  0
  1  2  1  0  0  0
  1 25  1  0  0  0
  1 26  1  0  0  0
  1 27  1  0  0  0
  2  3  1  0  0  0
  2 24  1  0  0  0
  3  4  1  0  0  0
  3 12  1  0  0  0
  3 28  1  0  0  0
  4  5  1  0  0  0
  4 29  1  0  0  0
  4 30  1  0  0  0
  5  6  1  0  0  0
  5 31  1  0  0  0
  5 32  1  0  0  0
  6  7  2  0  0  0
  6 11  1  0  0  0
  7  8  1  0  0  0
  7 33  1  0  0  0
  8  9  2  0  0  0
  8 34  1  0  0  0
  9 10  1  0  0  0
  9 35  1  0  0  0
 10 11  2  0  0  0
 10 36  1  0  0  0
 11 37  1  0  0  0
 12 13  1  0  0  0
 12 38  1  0  0  0
 13 14  2  0  0  0
 13 24  1  0  0  0
 14 15  1  0  0  0
 14 39  1  0  0  0
 15 16  1  0  0  0
 15 22  2  0  0  0
 16 17  2  0  0  0
 16 40  1  0  0  0
 17 18  1  0  0  0
 17 41  1  0  0  0
 18 19  2  0  0  0
 18 20  1  0  0  0
 20 21  1  0  0  0
 20 42  1  0  0  0
 21 43  1  0  0  0
 22 23  1  0  0  0
 22 44  1  0  0  0
 23 24  2  0  0  0
 23 45  1  0  0  0
M  END
> <s_m_entry_id>
52976

> <s_m_entry_name>
dock_pv.195

> <s_m_Source_Path>
/home/csk/Desktop/cluster/DUD-E-result/hdac8

> <s_m_Source_File>
dock_pv.maegz

> <i_m_Source_File_Index>
195

> <chembl_id>
CHEMBL3648272

> <chembl_pref_name>
None

> <i_lp_mmshare_version>
53161

> <i_f3d_flags>
0

> <r_lp_tautomer_probability>
1

> <s_lp_Force_Field>
OPLS_2005

> <r_lp_Energy>
38.615504

> <b_lp_Chiralities_Consistent>
1

> <s_lp_Variant>
CHEMBL3192_lig818-2

> <s_i_glide_gridfile>
glide-grid_3f07

> <i_i_glide_lignum>
873

> <i_i_glide_rotatable_bonds>
7

> <r_i_docking_score>
-7.60114469082925

> <r_i_glide_ligand_efficiency>
-0.316714362117885

> <r_i_glide_ligand_efficiency_sa>
-0.913562304381627

> <r_i_glide_ligand_efficiency_ln>
-1.81930271831759

> <r_i_glide_gscore>
-7.60114469082925

> <r_i_glide_lipo>
-1.18195690580969

> <r_i_glide_hbond>
-0.237515098770114

> <r_i_glide_metal>
-2.3

> <r_i_glide_rewards>
-1.37639193347054

> <r_i_glide_evdw>
-33.9077911376953

> <r_i_glide_ecoul>
-11.1508636474609

> <r_i_glide_erotb>
1.07362511674986

> <r_i_glide_esite>
-0.21088676552486

> <r_i_glide_emodel>
-69.2977418662076

> <r_i_glide_energy>
-45.0586547851562

> <r_i_glide_einternal>
2.27267360687256

> <i_i_glide_confnum>
100

> <i_i_glide_posenum>
299

> <r_i_glide_eff_state_penalty>
0

> <s_user_duplicate_titles>
CHEMBL3192_lig818

> <s_m_subgroup_title>
dock_pv

> <s_m_subgroupid>
dock_pv

> <b_m_subgroup_collapsed>
1

$$$$
CHEMBL3192_lig1031
                    3D
 Schrodinger Suite 2021-1.
 40 42  0  0  1  0            999 V2000
  -30.2141   25.4325  -37.3833 O   0  0  0  0  0  0
  -29.4130   26.5745  -37.5810 N   0  0  0  0  0  0
  -29.4130   27.1580  -38.7829 C   0  0  0  0  0  0
  -30.2620   26.8690  -39.6187 O   0  0  0  0  0  0
  -28.3941   28.2457  -39.0509 C   0  0  0  0  0  0
  -27.1854   28.2525  -38.3781 C   0  0  0  0  0  0
  -26.2515   29.2690  -38.5411 C   0  0  0  0  0  0
  -26.4584   30.2960  -39.4417 C   0  0  0  0  0  0
  -25.3672   31.3497  -39.6425 C   0  0  0  0  0  0
  -25.8807   32.6010  -40.3806 C   0  0  0  0  0  0
  -26.7122   32.2297  -41.6094 C   0  0  2  0  0  0
  -27.9336   31.3818  -41.1810 C   0  0  0  0  0  0
  -27.6553   30.2867  -40.1808 C   0  0  0  0  0  0
  -28.6093   29.2718  -39.9764 C   0  0  0  0  0  0
  -25.8675   31.5045  -42.5622 N   0  0  0  0  0  0
  -26.0208   31.5933  -43.9531 C   0  0  0  0  0  0
  -25.1147   30.8999  -44.7551 C   0  0  0  0  0  0
  -25.2487   30.9739  -46.1411 C   0  0  0  0  0  0
  -26.3044   31.6990  -46.7103 C   0  0  0  0  0  0
  -27.1539   32.3876  -45.8350 C   0  0  0  0  0  0
  -27.0131   32.3548  -44.4855 N   0  0  0  0  0  0
  -26.5160   31.7308  -48.1747 N   0  3  0  0  0  0
  -27.3891   32.4690  -48.6202 O   0  0  0  0  0  0
  -25.8148   31.0098  -48.8812 O   0  5  0  0  0  0
  -29.5840   24.7013  -37.3635 H   0  0  0  0  0  0
  -28.8054   26.7887  -36.7966 H   0  0  0  0  0  0
  -26.9885   27.4741  -37.6574 H   0  0  0  0  0  0
  -25.3255   29.2371  -37.9865 H   0  0  0  0  0  0
  -24.9403   31.6447  -38.6825 H   0  0  0  0  0  0
  -24.5488   30.9003  -40.2064 H   0  0  0  0  0  0
  -26.4884   33.1974  -39.6979 H   0  0  0  0  0  0
  -25.0412   33.2415  -40.6568 H   0  0  0  0  0  0
  -27.0773   33.1394  -42.0895 H   0  0  0  0  0  0
  -28.3551   30.8690  -42.0373 H   0  0  0  0  0  0
  -28.7030   32.0365  -40.7747 H   0  0  0  0  0  0
  -29.5312   29.2988  -40.5407 H   0  0  0  0  0  0
  -25.3099   30.7484  -42.1956 H   0  0  0  0  0  0
  -24.3112   30.3267  -44.3172 H   0  0  0  0  0  0
  -24.5323   30.4691  -46.7699 H   0  0  0  0  0  0
  -27.9805   32.9776  -46.2066 H   0  0  0  0  0  0
  1  2  1  0  0  0
  1 25  1  0  0  0
  2  3  1  0  0  0
  2 26  1  0  0  0
  3  4  2  0  0  0
  3  5  1  0  0  0
  5  6  2  0  0  0
  5 14  1  0  0  0
  6  7  1  0  0  0
  6 27  1  0  0  0
  7  8  2  0  0  0
  7 28  1  0  0  0
  8  9  1  0  0  0
  8 13  1  0  0  0
  9 10  1  0  0  0
  9 29  1  0  0  0
  9 30  1  0  0  0
 10 11  1  0  0  0
 10 31  1  0  0  0
 10 32  1  0  0  0
 11 12  1  0  0  0
 11 15  1  0  0  0
 11 33  1  0  0  0
 12 13  1  0  0  0
 12 34  1  0  0  0
 12 35  1  0  0  0
 13 14  2  0  0  0
 14 36  1  0  0  0
 15 16  1  0  0  0
 15 37  1  0  0  0
 16 17  2  0  0  0
 16 21  1  0  0  0
 17 18  1  0  0  0
 17 38  1  0  0  0
 18 19  2  0  0  0
 18 39  1  0  0  0
 19 20  1  0  0  0
 19 22  1  0  0  0
 20 21  2  0  0  0
 20 40  1  0  0  0
 22 23  2  0  0  0
 22 24  1  0  0  0
M  CHG  2  22   1  24  -1
M  END
> <s_m_entry_id>
52977

> <s_m_entry_name>
dock_pv.196

> <s_m_Source_Path>
/home/csk/Desktop/cluster/DUD-E-result/hdac8

> <s_m_Source_File>
dock_pv.maegz

> <i_m_Source_File_Index>
196

> <chembl_id>
CHEMBL3694285

> <chembl_pref_name>
None

> <i_lp_mmshare_version>
53161

> <i_f3d_flags>
0

> <r_lp_tautomer_probability>
0.999999772200052

> <s_lp_Force_Field>
OPLS_2005

> <r_lp_Energy>
24.534027

> <b_lp_Chiralities_Consistent>
1

> <s_lp_Variant>
CHEMBL3192_lig1031-1

> <s_i_glide_gridfile>
glide-grid_3f07

> <i_i_glide_lignum>
1101

> <i_i_glide_rotatable_bonds>
6

> <r_i_docking_score>
-7.59800355762504

> <r_i_glide_ligand_efficiency>
-0.31658348156771

> <r_i_glide_ligand_efficiency_sa>
-0.913184779547523

> <r_i_glide_ligand_efficiency_ln>
-1.81855090100462

> <r_i_glide_gscore>
-7.59800355762504

> <r_i_glide_lipo>
-1.41070220572778

> <r_i_glide_hbond>
-0.606524543332811

> <r_i_glide_metal>
-1.80720531662066

> <r_i_glide_rewards>
-1.42794183793772

> <r_i_glide_evdw>
-21.6357116699219

> <r_i_glide_ecoul>
-11.663028717041

> <r_i_glide_erotb>
0.696873923448563

> <r_i_glide_esite>
-0.21126368640238

> <r_i_glide_emodel>
-50.1113440617994

> <r_i_glide_energy>
-33.2987403869629

> <r_i_glide_einternal>
1.41389846801758

> <i_i_glide_confnum>
44

> <i_i_glide_posenum>
234

> <r_i_glide_eff_state_penalty>
0

> <s_user_duplicate_titles>
CHEMBL3192_lig1031

> <s_m_subgroup_title>
dock_pv

> <s_m_subgroupid>
dock_pv

> <b_m_subgroup_collapsed>
1

$$$$
CHEMBL3192_lig451
                    3D
 Schrodinger Suite 2021-1.
 36 37  0  0  1  0            999 V2000
  -31.0130   25.2596  -36.1039 O   0  0  0  0  0  0
  -30.1747   26.1800  -36.7413 N   0  0  0  0  0  0
  -30.0046   26.0689  -38.0699 C   0  0  0  0  0  0
  -30.6130   25.2690  -38.7810 O   0  0  0  0  0  0
  -29.0642   26.9830  -38.6696 C   0  0  0  0  0  0
  -29.0130   28.2915  -38.3556 C   0  0  0  0  0  0
  -28.1428   29.2774  -38.9960 C   0  0  0  0  0  0
  -28.7321   30.2950  -39.7455 C   0  0  0  0  0  0
  -27.9535   31.3315  -40.2471 C   0  0  0  0  0  0
  -26.5824   31.3705  -39.9810 C   0  0  0  0  0  0
  -25.7853   32.4690  -40.3291 N   0  0  0  0  0  0
  -25.8844   33.3487  -41.8604 S   0  0  0  0  0  0
  -27.2940   33.6533  -42.1355 O   0  0  0  0  0  0
  -24.8854   34.4184  -41.7751 O   0  0  0  0  0  0
  -25.2985   32.1835  -43.0801 C   0  0  0  0  0  0
  -26.2130   31.4959  -43.8792 C   0  0  0  0  0  0
  -25.7514   30.5879  -44.8254 C   0  0  0  0  0  0
  -24.3821   30.3679  -44.9597 C   0  0  0  0  0  0
  -23.4660   31.0429  -44.1559 C   0  0  0  0  0  0
  -23.9263   31.9540  -43.2092 C   0  0  0  0  0  0
  -25.9891   30.3294  -39.2639 C   0  0  0  0  0  0
  -26.7652   29.2774  -38.7813 C   0  0  0  0  0  0
  -30.4030   24.6720  -35.6486 H   0  0  0  0  0  0
  -29.6628   26.7770  -36.1004 H   0  0  0  0  0  0
  -28.4148   26.5638  -39.4255 H   0  0  0  0  0  0
  -29.6559   28.6923  -37.5810 H   0  0  0  0  0  0
  -29.8001   30.3054  -39.9103 H   0  0  0  0  0  0
  -28.4447   32.1256  -40.7811 H   0  0  0  0  0  0
  -24.9110   32.5768  -39.8343 H   0  0  0  0  0  0
  -27.2749   31.6690  -43.7778 H   0  0  0  0  0  0
  -26.4538   30.0680  -45.4590 H   0  0  0  0  0  0
  -24.0290   29.6690  -45.7005 H   0  0  0  0  0  0
  -22.4052   30.8690  -44.2715 H   0  0  0  0  0  0
  -23.2205   32.4839  -42.5847 H   0  0  0  0  0  0
  -24.9299   30.3469  -39.0488 H   0  0  0  0  0  0
  -26.3030   28.4953  -38.1975 H   0  0  0  0  0  0
  1  2  1  0  0  0
  1 23  1  0  0  0
  2  3  1  0  0  0
  2 24  1  0  0  0
  3  4  2  0  0  0
  3  5  1  0  0  0
  5  6  2  0  0  0
  5 25  1  0  0  0
  6  7  1  0  0  0
  6 26  1  0  0  0
  7  8  2  0  0  0
  7 22  1  0  0  0
  8  9  1  0  0  0
  8 27  1  0  0  0
  9 10  2  0  0  0
  9 28  1  0  0  0
 10 11  1  0  0  0
 10 21  1  0  0  0
 11 12  1  0  0  0
 11 29  1  0  0  0
 12 13  2  0  0  0
 12 14  2  0  0  0
 12 15  1  0  0  0
 15 16  2  0  0  0
 15 20  1  0  0  0
 16 17  1  0  0  0
 16 30  1  0  0  0
 17 18  2  0  0  0
 17 31  1  0  0  0
 18 19  1  0  0  0
 18 32  1  0  0  0
 19 20  2  0  0  0
 19 33  1  0  0  0
 20 34  1  0  0  0
 21 22  2  0  0  0
 21 35  1  0  0  0
 22 36  1  0  0  0
M  END
> <s_m_entry_id>
52978

> <s_m_entry_name>
dock_pv.197

> <s_m_Source_Path>
/home/csk/Desktop/cluster/DUD-E-result/hdac8

> <s_m_Source_File>
dock_pv.maegz

> <i_m_Source_File_Index>
197

> <chembl_id>
CHEMBL317814

> <chembl_pref_name>
None

> <i_lp_mmshare_version>
53161

> <i_f3d_flags>
0

> <r_lp_tautomer_probability>
1

> <s_lp_Force_Field>
OPLS_2005

> <r_lp_Energy>
23.121635

> <b_lp_Chiralities_Consistent>
1

> <s_lp_Variant>
CHEMBL3192_lig451-1

> <s_i_glide_gridfile>
glide-grid_3f07

> <i_i_glide_lignum>
470

> <i_i_glide_rotatable_bonds>
7

> <r_i_docking_score>
-7.5924596664528

> <r_i_glide_ligand_efficiency>
-0.345111803020582

> <r_i_glide_ligand_efficiency_sa>
-0.967016844540702

> <r_i_glide_ligand_efficiency_ln>
-1.85587408417632

> <r_i_glide_gscore>
-7.5924596664528

> <r_i_glide_lipo>
-1.31628815584369

> <r_i_glide_hbond>
-0.293851225741784

> <r_i_glide_metal>
-2.3

> <r_i_glide_rewards>
-1.35274779434636

> <r_i_glide_evdw>
-34.6856422424316

> <r_i_glide_ecoul>
-9.86637592315674

> <r_i_glide_erotb>
1.10376324055132

> <r_i_glide_esite>
-0.21909723047719

> <r_i_glide_emodel>
-65.0925372563217

> <r_i_glide_energy>
-44.5520181655884

> <r_i_glide_einternal>
8.50426292419434

> <i_i_glide_confnum>
47

> <i_i_glide_posenum>
226

> <r_i_glide_eff_state_penalty>
0

> <s_user_duplicate_titles>
CHEMBL3192_lig451

> <s_m_subgroup_title>
dock_pv

> <s_m_subgroupid>
dock_pv

> <b_m_subgroup_collapsed>
1

$$$$
CHEMBL3192_lig724
                    3D
 Schrodinger Suite 2021-1.
 42 43  0  0  1  0            999 V2000
  -23.9947   32.2591  -43.1304 N   0  3  0  0  0  0
  -24.1842   33.0991  -42.0732 O   0  0  0  0  0  0
  -25.3927   32.7377  -41.4530 N   0  0  0  0  0  0
  -25.8819   31.7124  -42.1287 C   0  0  0  0  0  0
  -25.0479   31.4002  -43.1779 C   0  0  0  0  0  0
  -22.9862   32.3650  -43.9168 O   0  5  0  0  0  0
  -25.1670   30.1729  -44.4716 S   0  0  0  0  0  0
  -25.6616   31.1048  -45.9175 C   0  0  0  0  0  0
  -23.8132   29.6692  -44.7169 O   0  0  0  0  0  0
  -26.2596   29.2694  -44.0980 O   0  0  0  0  0  0
  -27.0151   31.2693  -46.2154 C   0  0  0  0  0  0
  -27.3945   31.9911  -47.3432 C   0  0  0  0  0  0
  -26.4172   32.5416  -48.1692 C   0  0  0  0  0  0
  -25.0641   32.3811  -47.8754 C   0  0  0  0  0  0
  -24.6839   31.6639  -46.7448 C   0  0  0  0  0  0
  -27.0668   31.0883  -41.8088 O   0  0  0  0  0  0
  -27.6118   31.3244  -40.5062 C   0  0  0  0  0  0
  -26.8571   30.5482  -39.4074 C   0  0  0  0  0  0
  -27.0105   29.0215  -39.4740 C   0  0  0  0  0  0
  -28.4413   28.5210  -39.1876 C   0  0  0  0  0  0
  -28.4335   27.0380  -38.7787 C   0  0  0  0  0  0
  -29.8127   26.3841  -38.6456 C   0  0  0  0  0  0
  -30.0509   25.6669  -37.5367 N   0  0  0  0  0  0
  -30.6133   26.4734  -39.5807 O   0  0  0  0  0  0
  -31.2078   24.8724  -37.4888 O   0  0  0  0  0  0
  -27.7766   30.8397  -45.5835 H   0  0  0  0  0  0
  -28.4406   32.1171  -47.5806 H   0  0  0  0  0  0
  -26.7137   33.0967  -49.0473 H   0  0  0  0  0  0
  -24.3140   32.8135  -48.5215 H   0  0  0  0  0  0
  -23.6339   31.5424  -46.5167 H   0  0  0  0  0  0
  -28.6574   31.0183  -40.5224 H   0  0  0  0  0  0
  -27.6318   32.3905  -40.2722 H   0  0  0  0  0  0
  -27.1950   30.8688  -38.4241 H   0  0  0  0  0  0
  -25.7981   30.8087  -39.4407 H   0  0  0  0  0  0
  -26.3268   28.5980  -38.7365 H   0  0  0  0  0  0
  -26.6706   28.6501  -40.4426 H   0  0  0  0  0  0
  -29.0621   28.6825  -40.0702 H   0  0  0  0  0  0
  -28.8848   29.1076  -38.3817 H   0  0  0  0  0  0
  -27.8741   26.9345  -37.8527 H   0  0  0  0  0  0
  -27.8839   26.4688  -39.5298 H   0  0  0  0  0  0
  -29.4259   25.5107  -36.7575 H   0  0  0  0  0  0
  -30.8726   23.9716  -37.5789 H   0  0  0  0  0  0
  1  2  1  0  0  0
  1  5  2  0  0  0
  1  6  1  0  0  0
  2  3  1  0  0  0
  3  4  2  0  0  0
  4  5  1  0  0  0
  4 16  1  0  0  0
  5  7  1  0  0  0
  7  8  1  0  0  0
  7  9  2  0  0  0
  7 10  2  0  0  0
  8 11  1  0  0  0
  8 15  2  0  0  0
 11 12  2  0  0  0
 11 26  1  0  0  0
 12 13  1  0  0  0
 12 27  1  0  0  0
 13 14  2  0  0  0
 13 28  1  0  0  0
 14 15  1  0  0  0
 14 29  1  0  0  0
 15 30  1  0  0  0
 16 17  1  0  0  0
 17 18  1  0  0  0
 17 31  1  0  0  0
 17 32  1  0  0  0
 18 19  1  0  0  0
 18 33  1  0  0  0
 18 34  1  0  0  0
 19 20  1  0  0  0
 19 35  1  0  0  0
 19 36  1  0  0  0
 20 21  1  0  0  0
 20 37  1  0  0  0
 20 38  1  0  0  0
 21 22  1  0  0  0
 21 39  1  0  0  0
 21 40  1  0  0  0
 22 23  1  0  0  0
 22 24  2  0  0  0
 23 25  1  0  0  0
 23 41  1  0  0  0
 25 42  1  0  0  0
M  CHG  2   1   1   6  -1
M  END
> <s_m_entry_id>
52979

> <s_m_entry_name>
dock_pv.198

> <s_m_Source_Path>
/home/csk/Desktop/cluster/DUD-E-result/hdac8

> <s_m_Source_File>
dock_pv.maegz

> <i_m_Source_File_Index>
198

> <chembl_id>
CHEMBL3426906

> <chembl_pref_name>
None

> <i_lp_mmshare_version>
53161

> <i_f3d_flags>
0

> <r_lp_tautomer_probability>
1

> <s_lp_Force_Field>
OPLS_2005

> <r_lp_Energy>
29.976174

> <b_lp_Chiralities_Consistent>
1

> <s_lp_Variant>
CHEMBL3192_lig724-1

> <s_i_glide_gridfile>
glide-grid_3f07

> <i_i_glide_lignum>
771

> <i_i_glide_rotatable_bonds>
11

> <r_i_docking_score>
-7.59142574340788

> <r_i_glide_ligand_efficiency>
-0.303657029736315

> <r_i_glide_ligand_efficiency_sa>
-0.887898540329339

> <r_i_glide_ligand_efficiency_ln>
-1.79939539785934

> <r_i_glide_gscore>
-7.59142574340788

> <r_i_glide_lipo>
-1.074326818801

> <r_i_glide_hbond>
-0.32

> <r_i_glide_metal>
-2.3

> <r_i_glide_rewards>
-0.951256116051738

> <r_i_glide_evdw>
-27.2548561096191

> <r_i_glide_ecoul>
-18.6873760223389

> <r_i_glide_erotb>
1.39960108158712

> <r_i_glide_esite>
-0.179594681310469

> <r_i_glide_emodel>
-71.3297204351895

> <r_i_glide_energy>
-45.942232131958

> <r_i_glide_einternal>
3.70601868629456

> <i_i_glide_confnum>
44

> <i_i_glide_posenum>
161

> <r_i_glide_eff_state_penalty>
0

> <s_user_duplicate_titles>
CHEMBL3192_lig724

> <s_m_subgroup_title>
dock_pv

> <s_m_subgroupid>
dock_pv

> <b_m_subgroup_collapsed>
1

$$$$
CHEMBL3192_lig1045
                    3D
 Schrodinger Suite 2021-1.
 47 50  0  0  1  0            999 V2000
  -29.8130   25.8226  -37.4189 O   0  0  0  0  0  0
  -29.0130   26.8690  -37.9395 N   0  0  0  0  0  0
  -29.3464   27.3534  -39.1284 C   0  0  0  0  0  0
  -30.2939   26.8690  -39.7596 O   0  0  0  0  0  0
  -28.6631   28.6315  -39.5810 C   0  0  0  0  0  0
  -29.4130   29.5686  -40.2904 C   0  0  0  0  0  0
  -28.8793   30.7830  -40.6664 C   0  0  0  0  0  0
  -27.5476   31.0915  -40.4384 C   0  0  0  0  0  0
  -26.9916   32.3789  -41.0538 C   0  0  0  0  0  0
  -25.5847   32.7349  -40.5527 C   0  0  0  0  0  0
  -24.6716   31.5016  -40.4322 C   0  0  1  0  0  0
  -25.2882   30.5145  -39.4127 C   0  0  0  0  0  0
  -26.7483   30.1649  -39.7275 C   0  0  0  0  0  0
  -27.3229   28.9498  -39.2979 C   0  0  0  0  0  0
  -24.5513   30.8690  -41.7492 N   0  0  0  0  0  0
  -23.7123   31.3921  -42.7414 C   0  0  0  0  0  0
  -22.6300   32.1341  -42.3852 N   0  0  0  0  0  0
  -21.8845   32.6435  -43.3962 C   0  0  0  0  0  0
  -22.2131   32.4468  -44.7378 C   0  0  0  0  0  0
  -23.3519   31.6784  -45.0248 C   0  0  0  0  0  0
  -24.0833   31.1188  -44.0188 N   0  0  0  0  0  0
  -23.8106   31.4535  -46.4355 C   0  0  0  0  0  0
  -22.8387   31.2690  -47.4336 C   0  0  0  0  0  0
  -23.1867   31.0884  -48.7708 C   0  0  0  0  0  0
  -24.5265   31.0920  -49.1448 C   0  0  0  0  0  0
  -24.9653   30.8690  -50.7983 Cl  0  0  0  0  0  0
  -25.5123   31.2690  -48.1773 C   0  0  0  0  0  0
  -25.1697   31.4508  -46.8344 C   0  0  0  0  0  0
  -26.4801   31.7195  -45.7317 Cl  0  0  0  0  0  0
  -29.2443   25.0453  -37.4811 H   0  0  0  0  0  0
  -28.3329   27.2272  -37.2769 H   0  0  0  0  0  0
  -30.4370   29.3822  -40.5511 H   0  0  0  0  0  0
  -29.5112   31.4836  -41.1810 H   0  0  0  0  0  0
  -26.9553   32.2458  -42.1366 H   0  0  0  0  0  0
  -27.6678   33.2157  -40.8765 H   0  0  0  0  0  0
  -25.1318   33.4904  -41.1966 H   0  0  0  0  0  0
  -25.6845   33.2074  -39.5810 H   0  0  0  0  0  0
  -23.6859   31.8184  -40.0841 H   0  0  0  0  0  0
  -25.2633   30.9822  -38.4269 H   0  0  0  0  0  0
  -24.6690   29.6245  -39.3299 H   0  0  0  0  0  0
  -26.7083   28.2530  -38.7456 H   0  0  0  0  0  0
  -25.3943   30.4364  -42.0950 H   0  0  0  0  0  0
  -21.0236   33.2319  -43.1128 H   0  0  0  0  0  0
  -21.6147   32.8943  -45.5173 H   0  0  0  0  0  0
  -21.7896   31.2550  -47.1727 H   0  0  0  0  0  0
  -22.4144   30.9487  -49.5135 H   0  0  0  0  0  0
  -26.5527   31.2770  -48.4706 H   0  0  0  0  0  0
  1  2  1  0  0  0
  1 30  1  0  0  0
  2  3  1  0  0  0
  2 31  1  0  0  0
  3  4  2  0  0  0
  3  5  1  0  0  0
  5  6  2  0  0  0
  5 14  1  0  0  0
  6  7  1  0  0  0
  6 32  1  0  0  0
  7  8  2  0  0  0
  7 33  1  0  0  0
  8  9  1  0  0  0
  8 13  1  0  0  0
  9 10  1  0  0  0
  9 34  1  0  0  0
  9 35  1  0  0  0
 10 11  1  0  0  0
 10 36  1  0  0  0
 10 37  1  0  0  0
 11 12  1  0  0  0
 11 15  1  0  0  0
 11 38  1  0  0  0
 12 13  1  0  0  0
 12 39  1  0  0  0
 12 40  1  0  0  0
 13 14  2  0  0  0
 14 41  1  0  0  0
 15 16  1  0  0  0
 15 42  1  0  0  0
 16 17  2  0  0  0
 16 21  1  0  0  0
 17 18  1  0  0  0
 18 19  2  0  0  0
 18 43  1  0  0  0
 19 20  1  0  0  0
 19 44  1  0  0  0
 20 21  2  0  0  0
 20 22  1  0  0  0
 22 23  2  0  0  0
 22 28  1  0  0  0
 23 24  1  0  0  0
 23 45  1  0  0  0
 24 25  2  0  0  0
 24 46  1  0  0  0
 25 26  1  0  0  0
 25 27  1  0  0  0
 27 28  2  0  0  0
 27 47  1  0  0  0
 28 29  1  0  0  0
M  END
> <s_m_entry_id>
52980

> <s_m_entry_name>
dock_pv.199

> <s_m_Source_Path>
/home/csk/Desktop/cluster/DUD-E-result/hdac8

> <s_m_Source_File>
dock_pv.maegz

> <i_m_Source_File_Index>
199

> <chembl_id>
CHEMBL3694294

> <chembl_pref_name>
None

> <i_lp_mmshare_version>
53161

> <i_f3d_flags>
0

> <r_lp_tautomer_probability>
0.999999987636

> <s_lp_Force_Field>
OPLS_2005

> <r_lp_Energy>
25.648729

> <b_lp_Chiralities_Consistent>
1

> <s_lp_Variant>
CHEMBL3192_lig1045-2

> <s_i_glide_gridfile>
glide-grid_3f07

> <i_i_glide_lignum>
1130

> <i_i_glide_rotatable_bonds>
6

> <r_i_docking_score>
-7.59084879274226

> <r_i_glide_ligand_efficiency>
-0.261753406646285

> <r_i_glide_ligand_efficiency_sa>
-0.804189394517323

> <r_i_glide_ligand_efficiency_ln>
-1.73811188622085

> <r_i_glide_gscore>
-7.59084879274226

> <r_i_glide_lipo>
-1.24183289838415

> <r_i_glide_hbond>
-0.59582878854596

> <r_i_glide_metal>
-2.25351540025138

> <r_i_glide_rewards>
-0.748594484969999

> <r_i_glide_evdw>
-20.5538291931152

> <r_i_glide_ecoul>
-13.7750673294067

> <r_i_glide_erotb>
0.539108072089861

> <r_i_glide_esite>
-0.196233733613851

> <r_i_glide_emodel>
-49.0174166507067

> <r_i_glide_energy>
-34.328896522522

> <r_i_glide_einternal>
3.70374917984009

> <i_i_glide_confnum>
115

> <i_i_glide_posenum>
9

> <r_i_glide_eff_state_penalty>
0

> <s_user_duplicate_titles>
CHEMBL3192_lig1045

> <s_m_subgroup_title>
dock_pv

> <s_m_subgroupid>
dock_pv

> <b_m_subgroup_collapsed>
1

$$$$
CHEMBL3192_lig935
                    3D
 Schrodinger Suite 2021-1.
 52 54  0  0  1  0            999 V2000
  -22.3153   31.5296  -47.5529 C   0  0  0  0  0  0
  -22.0400   30.9337  -48.7785 C   0  0  0  0  0  0
  -23.0573   30.7169  -49.7021 C   0  0  0  0  0  0
  -23.6141   31.9049  -47.2186 C   0  0  0  0  0  0
  -24.6908   31.6688  -48.1214 C   0  0  0  0  0  0
  -24.3890   31.0861  -49.3950 C   0  0  0  0  0  0
  -25.3491   30.8690  -50.3354 N   0  0  0  0  0  0
  -26.6095   31.2359  -50.0133 C   0  0  0  0  0  0
  -27.0130   31.7766  -48.8465 N   0  0  0  0  0  0
  -26.0753   31.9826  -47.8818 C   0  0  0  0  0  0
  -26.5398   32.5170  -46.6442 N   0  0  0  0  0  0
  -26.2614   32.0000  -45.3475 C   0  0  0  0  0  0
  -27.7177   33.4051  -46.7307 C   0  0  0  0  0  0
  -25.7493   30.7030  -45.1945 C   0  0  0  0  0  0
  -25.4282   30.1978  -43.9386 C   0  0  0  0  0  0
  -25.6283   30.9660  -42.7943 C   0  0  0  0  0  0
  -26.1738   32.2494  -42.9269 C   0  0  0  0  0  0
  -26.4779   32.7583  -44.1858 C   0  0  0  0  0  0
  -25.2378   30.3994  -41.5961 O   0  0  0  0  0  0
  -25.6110   30.9983  -40.3543 C   0  0  0  0  0  0
  -27.0500   30.5923  -39.9786 C   0  0  0  0  0  0
  -27.1337   29.1182  -39.5379 C   0  0  0  0  0  0
  -28.5511   28.6290  -39.1930 C   0  0  0  0  0  0
  -28.5124   27.2102  -38.5814 C   0  0  0  0  0  0
  -29.8552   26.4689  -38.5646 C   0  0  0  0  0  0
  -30.1956   25.8195  -37.4379 N   0  0  0  0  0  0
  -30.5637   26.4690  -39.5807 O   0  0  0  0  0  0
  -31.3637   25.0392  -37.4395 O   0  0  0  0  0  0
  -21.5104   31.6996  -46.8513 H   0  0  0  0  0  0
  -21.0252   30.6484  -49.0182 H   0  0  0  0  0  0
  -22.8323   30.2746  -50.6618 H   0  0  0  0  0  0
  -23.7960   32.3807  -46.2666 H   0  0  0  0  0  0
  -27.3763   31.0723  -50.7580 H   0  0  0  0  0  0
  -27.7915   33.8859  -47.7071 H   0  0  0  0  0  0
  -28.6350   32.8340  -46.5863 H   0  0  0  0  0  0
  -27.7018   34.2243  -46.0149 H   0  0  0  0  0  0
  -25.5825   30.0713  -46.0528 H   0  0  0  0  0  0
  -25.0152   29.2038  -43.8546 H   0  0  0  0  0  0
  -26.3460   32.8862  -42.0748 H   0  0  0  0  0  0
  -26.8510   33.7681  -44.2309 H   0  0  0  0  0  0
  -25.4748   32.0794  -40.3468 H   0  0  0  0  0  0
  -24.9195   30.6352  -39.5927 H   0  0  0  0  0  0
  -27.7184   30.7729  -40.8215 H   0  0  0  0  0  0
  -27.3987   31.2402  -39.1767 H   0  0  0  0  0  0
  -26.4846   28.9742  -38.6722 H   0  0  0  0  0  0
  -26.7254   28.4844  -40.3266 H   0  0  0  0  0  0
  -29.1603   28.6594  -40.0978 H   0  0  0  0  0  0
  -29.0161   29.3135  -38.4817 H   0  0  0  0  0  0
  -28.0852   27.2685  -37.5812 H   0  0  0  0  0  0
  -27.8362   26.5858  -39.1679 H   0  0  0  0  0  0
  -29.6705   25.7577  -36.5749 H   0  0  0  0  0  0
  -31.0376   24.1321  -37.4209 H   0  0  0  0  0  0
  1  2  2  0  0  0
  1  4  1  0  0  0
  1 29  1  0  0  0
  2  3  1  0  0  0
  2 30  1  0  0  0
  3  6  2  0  0  0
  3 31  1  0  0  0
  4  5  2  0  0  0
  4 32  1  0  0  0
  5  6  1  0  0  0
  5 10  1  0  0  0
  6  7  1  0  0  0
  7  8  2  0  0  0
  8  9  1  0  0  0
  8 33  1  0  0  0
  9 10  2  0  0  0
 10 11  1  0  0  0
 11 12  1  0  0  0
 11 13  1  0  0  0
 12 14  2  0  0  0
 12 18  1  0  0  0
 13 34  1  0  0  0
 13 35  1  0  0  0
 13 36  1  0  0  0
 14 15  1  0  0  0
 14 37  1  0  0  0
 15 16  2  0  0  0
 15 38  1  0  0  0
 16 17  1  0  0  0
 16 19  1  0  0  0
 17 18  2  0  0  0
 17 39  1  0  0  0
 18 40  1  0  0  0
 19 20  1  0  0  0
 20 21  1  0  0  0
 20 41  1  0  0  0
 20 42  1  0  0  0
 21 22  1  0  0  0
 21 43  1  0  0  0
 21 44  1  0  0  0
 22 23  1  0  0  0
 22 45  1  0  0  0
 22 46  1  0  0  0
 23 24  1  0  0  0
 23 47  1  0  0  0
 23 48  1  0  0  0
 24 25  1  0  0  0
 24 49  1  0  0  0
 24 50  1  0  0  0
 25 26  1  0  0  0
 25 27  2  0  0  0
 26 28  1  0  0  0
 26 51  1  0  0  0
 28 52  1  0  0  0
M  END
> <s_m_entry_id>
52981

> <s_m_entry_name>
dock_pv.200

> <s_m_Source_Path>
/home/csk/Desktop/cluster/DUD-E-result/hdac8

> <s_m_Source_File>
dock_pv.maegz

> <i_m_Source_File_Index>
200

> <chembl_id>
CHEMBL3774993

> <chembl_pref_name>
None

> <i_lp_mmshare_version>
53161

> <i_f3d_flags>
0

> <r_lp_tautomer_probability>
1

> <s_lp_Force_Field>
OPLS_2005

> <r_lp_Energy>
33.356377

> <b_lp_Chiralities_Consistent>
1

> <s_lp_Variant>
CHEMBL3192_lig935-1

> <s_i_glide_gridfile>
glide-grid_3f07

> <i_i_glide_lignum>
996

> <i_i_glide_rotatable_bonds>
11

> <r_i_docking_score>
-7.58920201069912

> <r_i_glide_ligand_efficiency>
-0.27104292895354

> <r_i_glide_ligand_efficiency_sa>
-0.823045968051012

> <r_i_glide_ligand_efficiency_ln>
-1.7518106527229

> <r_i_glide_gscore>
-7.58920201069912

> <r_i_glide_lipo>
-1.49275712571499

> <r_i_glide_hbond>
-0.32

> <r_i_glide_metal>
-2.3

> <r_i_glide_rewards>
-0.831669753574111

> <r_i_glide_evdw>
-32.5507659912109

> <r_i_glide_ecoul>
-14.7587852478027

> <r_i_glide_erotb>
1.34041790753651

> <r_i_glide_esite>
-0.143836952215563

> <r_i_glide_emodel>
-68.6533390173962

> <r_i_glide_energy>
-47.3095512390137

> <r_i_glide_einternal>
10.6598882675171

> <i_i_glide_confnum>
45

> <i_i_glide_posenum>
398

> <r_i_glide_eff_state_penalty>
0

> <s_user_duplicate_titles>
CHEMBL3192_lig935

> <s_m_subgroup_title>
dock_pv

> <s_m_subgroupid>
dock_pv

> <b_m_subgroup_collapsed>
1

$$$$
CHEMBL3192_lig1068
                    3D
 Schrodinger Suite 2021-1.
 45 47  0  0  1  0            999 V2000
  -30.2547   25.5998  -37.3132 O   0  0  0  0  0  0
  -29.4131   26.6975  -37.5797 N   0  0  0  0  0  0
  -29.3983   27.2140  -38.8115 C   0  0  0  0  0  0
  -30.2299   26.8690  -39.6444 O   0  0  0  0  0  0
  -28.3621   28.2813  -39.1040 C   0  0  0  0  0  0
  -27.1816   28.2990  -38.3810 C   0  0  0  0  0  0
  -26.2136   29.2692  -38.5731 C   0  0  0  0  0  0
  -26.3505   30.2413  -39.5463 C   0  0  0  0  0  0
  -25.1875   31.2124  -39.7805 C   0  0  0  0  0  0
  -25.5867   32.4221  -40.6404 C   0  0  0  0  0  0
  -26.4280   31.9880  -41.8489 C   0  0  2  0  0  0
  -27.7289   31.3095  -41.3880 C   0  0  0  0  0  0
  -27.5293   30.2412  -40.3240 C   0  0  0  0  0  0
  -28.5236   29.2692  -40.0869 C   0  0  0  0  0  0
  -25.6443   31.0301  -42.6687 N   0  0  2  0  0  0
  -24.7646   31.5918  -44.0804 S   0  0  0  0  0  0
  -24.0203   32.7956  -43.6977 O   0  0  0  0  0  0
  -24.0844   30.4242  -44.6545 O   0  0  0  0  0  0
  -26.0368   32.1048  -45.2353 C   0  0  0  0  0  0
  -26.3997   31.2701  -46.2934 C   0  0  0  0  0  0
  -27.4132   31.6544  -47.1697 C   0  0  0  0  0  0
  -28.0742   32.8690  -46.9886 C   0  0  0  0  0  0
  -27.7195   33.7167  -45.9339 C   0  0  0  0  0  0
  -26.6824   33.3353  -45.0716 C   0  0  0  0  0  0
  -28.4766   35.0283  -45.7379 C   0  0  0  0  0  0
  -28.0537   35.7022  -44.6665 F   0  0  0  0  0  0
  -28.3175   35.8033  -46.8107 F   0  0  0  0  0  0
  -29.7758   34.7722  -45.5781 F   0  0  0  0  0  0
  -29.6495   24.8537  -37.2227 H   0  0  0  0  0  0
  -28.8168   26.9547  -36.7978 H   0  0  0  0  0  0
  -27.0130   27.5556  -37.6168 H   0  0  0  0  0  0
  -25.3101   29.2412  -37.9810 H   0  0  0  0  0  0
  -24.7787   31.5589  -38.8293 H   0  0  0  0  0  0
  -24.3808   30.6674  -40.2737 H   0  0  0  0  0  0
  -26.1577   33.1184  -40.0233 H   0  0  0  0  0  0
  -24.6888   32.9542  -40.9593 H   0  0  0  0  0  0
  -26.6127   32.9046  -42.4056 H   0  0  0  0  0  0
  -28.2131   30.8682  -42.2518 H   0  0  0  0  0  0
  -28.4025   32.0667  -40.9879 H   0  0  0  0  0  0
  -29.4280   29.2906  -40.6787 H   0  0  0  0  0  0
  -26.0748   30.1104  -42.7804 H   0  0  0  0  0  0
  -25.8976   30.3250  -46.4356 H   0  0  0  0  0  0
  -27.6992   31.0042  -47.9829 H   0  0  0  0  0  0
  -28.8718   33.1455  -47.6653 H   0  0  0  0  0  0
  -26.3799   33.9913  -44.2683 H   0  0  0  0  0  0
  1  2  1  0  0  0
  1 29  1  0  0  0
  2  3  1  0  0  0
  2 30  1  0  0  0
  3  4  2  0  0  0
  3  5  1  0  0  0
  5  6  2  0  0  0
  5 14  1  0  0  0
  6  7  1  0  0  0
  6 31  1  0  0  0
  7  8  2  0  0  0
  7 32  1  0  0  0
  8  9  1  0  0  0
  8 13  1  0  0  0
  9 10  1  0  0  0
  9 33  1  0  0  0
  9 34  1  0  0  0
 10 11  1  0  0  0
 10 35  1  0  0  0
 10 36  1  0  0  0
 11 12  1  0  0  0
 11 15  1  0  0  0
 11 37  1  0  0  0
 12 13  1  0  0  0
 12 38  1  0  0  0
 12 39  1  0  0  0
 13 14  2  0  0  0
 14 40  1  0  0  0
 15 16  1  0  0  0
 15 41  1  0  0  0
 16 17  2  0  0  0
 16 18  2  0  0  0
 16 19  1  0  0  0
 19 20  2  0  0  0
 19 24  1  0  0  0
 20 21  1  0  0  0
 20 42  1  0  0  0
 21 22  2  0  0  0
 21 43  1  0  0  0
 22 23  1  0  0  0
 22 44  1  0  0  0
 23 24  2  0  0  0
 23 25  1  0  0  0
 24 45  1  0  0  0
 25 26  1  0  0  0
 25 27  1  0  0  0
 25 28  1  0  0  0
M  END
> <s_m_entry_id>
52982

> <s_m_entry_name>
dock_pv.201

> <s_m_Source_Path>
/home/csk/Desktop/cluster/DUD-E-result/hdac8

> <s_m_Source_File>
dock_pv.maegz

> <i_m_Source_File_Index>
201

> <chembl_id>
CHEMBL3694313

> <chembl_pref_name>
None

> <i_lp_mmshare_version>
53161

> <i_f3d_flags>
0

> <r_lp_tautomer_probability>
1

> <s_lp_Force_Field>
OPLS_2005

> <r_lp_Energy>
29.753841

> <b_lp_Chiralities_Consistent>
1

> <s_lp_Variant>
CHEMBL3192_lig1068-1

> <s_i_glide_gridfile>
glide-grid_3f07

> <i_i_glide_lignum>
1175

> <i_i_glide_rotatable_bonds>
7

> <r_i_docking_score>
-7.58724670545782

> <r_i_glide_ligand_efficiency>
-0.270973096623494

> <r_i_glide_ligand_efficiency_sa>
-0.822833915967949

> <r_i_glide_ligand_efficiency_ln>
-1.75135931086295

> <r_i_glide_gscore>
-7.58724670545782

> <r_i_glide_lipo>
-1.4708219942273

> <r_i_glide_hbond>
-0.608

> <r_i_glide_metal>
-1.85439429603797

> <r_i_glide_rewards>
-0.727278240677298

> <r_i_glide_evdw>
-23.1968746185303

> <r_i_glide_ecoul>
-14.2771654129028

> <r_i_glide_erotb>
0.574666368346684

> <r_i_glide_esite>
-0.2

> <r_i_glide_emodel>
-56.5873933517146

> <r_i_glide_energy>
-37.4740400314331

> <r_i_glide_einternal>
0.733592510223389

> <i_i_glide_confnum>
120

> <i_i_glide_posenum>
110

> <r_i_glide_eff_state_penalty>
0

> <s_user_duplicate_titles>
CHEMBL3192_lig1068

> <s_m_subgroup_title>
dock_pv

> <s_m_subgroupid>
dock_pv

> <b_m_subgroup_collapsed>
1

$$$$
CHEMBL3192_lig1054
                    3D
 Schrodinger Suite 2021-1.
 46 49  0  0  1  0            999 V2000
  -30.6102   24.8690  -38.2116 O   0  0  0  0  0  0
  -29.7178   25.9586  -38.1301 N   0  0  0  0  0  0
  -29.7371   26.8690  -39.1149 C   0  0  0  0  0  0
  -30.6130   26.8690  -39.9810 O   0  0  0  0  0  0
  -28.7192   27.9933  -39.1378 C   0  0  0  0  0  0
  -27.5552   27.9499  -38.3810 C   0  0  0  0  0  0
  -26.6130   28.9622  -38.4858 C   0  0  0  0  0  0
  -26.7713   30.0536  -39.3232 C   0  0  0  0  0  0
  -25.6449   31.0852  -39.4291 C   0  0  0  0  0  0
  -26.0673   32.3592  -40.1849 C   0  0  0  0  0  0
  -26.8678   32.0360  -41.4522 C   0  0  2  0  0  0
  -28.1524   31.2659  -41.0797 C   0  0  0  0  0  0
  -27.9372   30.1178  -40.1043 C   0  0  0  0  0  0
  -28.8983   29.1047  -39.9810 C   0  0  0  0  0  0
  -26.0397   31.2479  -42.3690 N   0  0  0  0  0  0
  -26.0291   31.4243  -43.7582 C   0  0  0  0  0  0
  -25.1168   30.6735  -44.4226 N   0  0  0  0  0  0
  -25.0325   30.8690  -45.7612 C   0  0  0  0  0  0
  -25.8620   31.7567  -46.4457 C   0  0  0  0  0  0
  -26.8016   32.4773  -45.6933 C   0  0  0  0  0  0
  -26.8731   32.3208  -44.3398 N   0  0  0  0  0  0
  -27.7335   33.4753  -46.3090 C   0  0  0  0  0  0
  -28.3682   34.4717  -45.5465 C   0  0  0  0  0  0
  -29.2131   35.4015  -46.1535 C   0  0  0  0  0  0
  -29.4128   35.3251  -47.5310 C   0  0  0  0  0  0
  -30.4550   36.4691  -48.2936 Cl  0  0  0  0  0  0
  -28.8226   34.3737  -48.2959 N   0  0  0  0  0  0
  -28.0144   33.4714  -47.6852 C   0  0  0  0  0  0
  -30.0371   24.0883  -38.1478 H   0  0  0  0  0  0
  -29.0938   25.9134  -37.3350 H   0  0  0  0  0  0
  -27.3396   27.1235  -37.7277 H   0  0  0  0  0  0
  -25.6691   28.8690  -37.9810 H   0  0  0  0  0  0
  -25.2812   31.3544  -38.4357 H   0  0  0  0  0  0
  -24.8003   30.6221  -39.9415 H   0  0  0  0  0  0
  -26.6673   32.9900  -39.5284 H   0  0  0  0  0  0
  -25.1854   32.9551  -40.4270 H   0  0  0  0  0  0
  -27.1582   32.9660  -41.9434 H   0  0  0  0  0  0
  -28.6130   30.8690  -41.9806 H   0  0  0  0  0  0
  -28.8654   31.9584  -40.6357 H   0  0  0  0  0  0
  -29.7873   29.1833  -40.5912 H   0  0  0  0  0  0
  -25.5053   30.4838  -41.9844 H   0  0  0  0  0  0
  -24.2798   30.2975  -46.2828 H   0  0  0  0  0  0
  -25.7540   31.8843  -47.5115 H   0  0  0  0  0  0
  -28.2010   34.5399  -44.4815 H   0  0  0  0  0  0
  -29.6976   36.1693  -45.5687 H   0  0  0  0  0  0
  -27.5966   32.7268  -48.3454 H   0  0  0  0  0  0
  1  2  1  0  0  0
  1 29  1  0  0  0
  2  3  1  0  0  0
  2 30  1  0  0  0
  3  4  2  0  0  0
  3  5  1  0  0  0
  5  6  2  0  0  0
  5 14  1  0  0  0
  6  7  1  0  0  0
  6 31  1  0  0  0
  7  8  2  0  0  0
  7 32  1  0  0  0
  8  9  1  0  0  0
  8 13  1  0  0  0
  9 10  1  0  0  0
  9 33  1  0  0  0
  9 34  1  0  0  0
 10 11  1  0  0  0
 10 35  1  0  0  0
 10 36  1  0  0  0
 11 12  1  0  0  0
 11 15  1  0  0  0
 11 37  1  0  0  0
 12 13  1  0  0  0
 12 38  1  0  0  0
 12 39  1  0  0  0
 13 14  2  0  0  0
 14 40  1  0  0  0
 15 16  1  0  0  0
 15 41  1  0  0  0
 16 17  2  0  0  0
 16 21  1  0  0  0
 17 18  1  0  0  0
 18 19  2  0  0  0
 18 42  1  0  0  0
 19 20  1  0  0  0
 19 43  1  0  0  0
 20 21  2  0  0  0
 20 22  1  0  0  0
 22 23  2  0  0  0
 22 28  1  0  0  0
 23 24  1  0  0  0
 23 44  1  0  0  0
 24 25  2  0  0  0
 24 45  1  0  0  0
 25 26  1  0  0  0
 25 27  1  0  0  0
 27 28  2  0  0  0
 28 46  1  0  0  0
M  END
> <s_m_entry_id>
52983

> <s_m_entry_name>
dock_pv.202

> <s_m_Source_Path>
/home/csk/Desktop/cluster/DUD-E-result/hdac8

> <s_m_Source_File>
dock_pv.maegz

> <i_m_Source_File_Index>
202

> <chembl_id>
CHEMBL3694302

> <chembl_pref_name>
None

> <i_lp_mmshare_version>
53161

> <i_f3d_flags>
0

> <r_lp_tautomer_probability>
0.999999987636

> <s_lp_Force_Field>
OPLS_2005

> <r_lp_Energy>
21.607495

> <b_lp_Chiralities_Consistent>
1

> <s_lp_Variant>
CHEMBL3192_lig1054-1

> <s_i_glide_gridfile>
glide-grid_3f07

> <i_i_glide_lignum>
1147

> <i_i_glide_rotatable_bonds>
6

> <r_i_docking_score>
-7.58706714077601

> <r_i_glide_ligand_efficiency>
-0.270966683599143

> <r_i_glide_ligand_efficiency_sa>
-0.822814442248952

> <r_i_glide_ligand_efficiency_ln>
-1.75131786206214

> <r_i_glide_gscore>
-7.58706714077601

> <r_i_glide_lipo>
-1.2252705367285

> <r_i_glide_hbond>
-0.304

> <r_i_glide_metal>
-2.3

> <r_i_glide_rewards>
-1.01511402246633

> <r_i_glide_evdw>
-19.6498584747314

> <r_i_glide_ecoul>
-14.5620927810669

> <r_i_glide_erotb>
0.624124259315423

> <r_i_glide_esite>
-0.2

> <r_i_glide_emodel>
-53.7499504083704

> <r_i_glide_energy>
-34.2119512557983

> <r_i_glide_einternal>
1.15905010700226

> <i_i_glide_confnum>
18

> <i_i_glide_posenum>
266

> <r_i_glide_eff_state_penalty>
0

> <s_user_duplicate_titles>
CHEMBL3192_lig1054

> <s_m_subgroup_title>
dock_pv

> <s_m_subgroupid>
dock_pv

> <b_m_subgroup_collapsed>
1

$$$$
CHEMBL3192_lig455
                    3D
 Schrodinger Suite 2021-1.
 48 49  0  0  1  0            999 V2000
  -22.6672   31.5132  -44.1771 C   0  0  0  0  0  0
  -24.8606   32.1686  -42.5543 C   0  0  0  0  0  0
  -23.5690   32.1768  -42.0219 C   0  0  0  0  0  0
  -22.4855   31.8362  -42.8352 C   0  0  0  0  0  0
  -23.3543   32.5625  -40.5567 C   0  0  1  0  0  0
  -23.1230   31.3395  -39.6414 C   0  0  0  0  0  0
  -22.2725   33.4550  -40.3810 O   0  0  0  0  0  0
  -24.3155   30.3719  -39.5195 C   0  0  0  0  0  0
  -25.5826   30.9889  -38.9099 C   0  0  0  0  0  0
  -26.6846   29.9625  -38.6013 C   0  0  0  0  0  0
  -27.4210   29.3974  -39.8280 C   0  0  0  0  0  0
  -28.7343   28.6753  -39.4601 C   0  0  0  0  0  0
  -28.5411   27.3289  -38.7179 C   0  0  0  0  0  0
  -29.8129   26.4689  -38.6370 C   0  0  0  0  0  0
  -29.9832   25.7180  -37.5383 N   0  0  0  0  0  0
  -30.6125   26.4690  -39.5810 O   0  0  0  0  0  0
  -31.0736   24.8372  -37.4954 O   0  0  0  0  0  0
  -23.9642   31.5258  -44.7453 C   0  0  0  0  0  0
  -25.0821   31.8486  -43.9165 C   0  0  0  0  0  0
  -26.3817   31.8533  -44.4825 C   0  0  0  0  0  0
  -26.5629   31.5642  -45.8326 C   0  0  0  0  0  0
  -25.4721   31.2691  -46.6432 C   0  0  0  0  0  0
  -24.1829   31.2397  -46.1156 C   0  0  0  0  0  0
  -21.8133   31.2688  -44.7939 H   0  0  0  0  0  0
  -25.7060   32.4243  -41.9321 H   0  0  0  0  0  0
  -21.4862   31.8387  -42.4237 H   0  0  0  0  0  0
  -24.2284   33.1150  -40.2082 H   0  0  0  0  0  0
  -22.8580   31.6692  -38.6359 H   0  0  0  0  0  0
  -22.2527   30.7856  -39.9966 H   0  0  0  0  0  0
  -22.2293   33.6693  -39.4378 H   0  0  0  0  0  0
  -24.0014   29.5528  -38.8740 H   0  0  0  0  0  0
  -24.5457   29.9351  -40.4917 H   0  0  0  0  0  0
  -25.9813   31.7696  -39.5579 H   0  0  0  0  0  0
  -25.3132   31.4913  -37.9811 H   0  0  0  0  0  0
  -27.4129   30.4693  -37.9810 H   0  0  0  0  0  0
  -26.2857   29.1478  -37.9965 H   0  0  0  0  0  0
  -26.7644   28.7294  -40.3878 H   0  0  0  0  0  0
  -27.6593   30.2179  -40.5067 H   0  0  0  0  0  0
  -29.2918   28.5201  -40.3810 H   0  0  0  0  0  0
  -29.3535   29.3413  -38.8561 H   0  0  0  0  0  0
  -28.1369   27.5015  -37.7212 H   0  0  0  0  0  0
  -27.8003   26.7326  -39.2511 H   0  0  0  0  0  0
  -29.3743   25.6381  -36.7354 H   0  0  0  0  0  0
  -30.6709   23.9632  -37.5808 H   0  0  0  0  0  0
  -27.2333   32.0913  -43.8620 H   0  0  0  0  0  0
  -27.5573   31.5757  -46.2555 H   0  0  0  0  0  0
  -25.6294   31.0543  -47.6900 H   0  0  0  0  0  0
  -23.3406   31.0049  -46.7505 H   0  0  0  0  0  0
  1 18  1  0  0  0
  1  4  2  0  0  0
  1 24  1  0  0  0
  2  3  2  0  0  0
  2 19  1  0  0  0
  2 25  1  0  0  0
  3  4  1  0  0  0
  3  5  1  0  0  0
  4 26  1  0  0  0
  5  6  1  0  0  0
  5  7  1  0  0  0
  5 27  1  0  0  0
  6  8  1  0  0  0
  6 28  1  0  0  0
  6 29  1  0  0  0
  7 30  1  0  0  0
  8  9  1  0  0  0
  8 31  1  0  0  0
  8 32  1  0  0  0
  9 10  1  0  0  0
  9 33  1  0  0  0
  9 34  1  0  0  0
 10 11  1  0  0  0
 10 35  1  0  0  0
 10 36  1  0  0  0
 11 12  1  0  0  0
 11 37  1  0  0  0
 11 38  1  0  0  0
 12 13  1  0  0  0
 12 39  1  0  0  0
 12 40  1  0  0  0
 13 14  1  0  0  0
 13 41  1  0  0  0
 13 42  1  0  0  0
 14 15  1  0  0  0
 14 16  2  0  0  0
 15 17  1  0  0  0
 15 43  1  0  0  0
 17 44  1  0  0  0
 18 19  1  0  0  0
 18 23  2  0  0  0
 19 20  2  0  0  0
 20 21  1  0  0  0
 20 45  1  0  0  0
 21 22  2  0  0  0
 21 46  1  0  0  0
 22 23  1  0  0  0
 22 47  1  0  0  0
 23 48  1  0  0  0
M  END
> <s_m_entry_id>
52984

> <s_m_entry_name>
dock_pv.203

> <s_m_Source_Path>
/home/csk/Desktop/cluster/DUD-E-result/hdac8

> <s_m_Source_File>
dock_pv.maegz

> <i_m_Source_File_Index>
203

> <chembl_id>
CHEMBL2235659

> <chembl_pref_name>
None

> <i_lp_mmshare_version>
53161

> <i_f3d_flags>
0

> <r_lp_tautomer_probability>
1

> <s_lp_Force_Field>
OPLS_2005

> <r_lp_Energy>
16.379578

> <b_lp_Chiralities_Consistent>
1

> <s_lp_Variant>
CHEMBL3192_lig455-2

> <s_i_glide_gridfile>
glide-grid_3f07

> <i_i_glide_lignum>
475

> <i_i_glide_rotatable_bonds>
12

> <r_i_docking_score>
-7.58464410386574

> <r_i_glide_ligand_efficiency>
-0.329767134950684

> <r_i_glide_ligand_efficiency_sa>
-0.937813865146336

> <r_i_glide_ligand_efficiency_ln>
-1.83403571806511

> <r_i_glide_gscore>
-7.58464410386574

> <r_i_glide_lipo>
-1.10039179461084

> <r_i_glide_hbond>
-0.413606694559064

> <r_i_glide_metal>
-2.3

> <r_i_glide_rewards>
-1.33254663350522

> <r_i_glide_evdw>
-25.7181758880615

> <r_i_glide_ecoul>
-17.9612998962402

> <r_i_glide_erotb>
1.68292275400259

> <r_i_glide_esite>
-0.14091795635409

> <r_i_glide_emodel>
-67.633014550651

> <r_i_glide_energy>
-43.6794757843018

> <r_i_glide_einternal>
4.44946718215942

> <i_i_glide_confnum>
19

> <i_i_glide_posenum>
81

> <r_i_glide_eff_state_penalty>
0

> <s_user_duplicate_titles>
CHEMBL3192_lig455

> <s_m_subgroup_title>
dock_pv

> <s_m_subgroupid>
dock_pv

> <b_m_subgroup_collapsed>
1

$$$$
CHEMBL3192_lig856
                    3D
 Schrodinger Suite 2021-1.
 49 51  0  0  1  0            999 V2000
  -27.9247   35.6393  -39.7912 C   0  0  0  0  0  0
  -26.7108   35.5373  -40.7363 C   0  0  0  0  0  0
  -26.4804   36.8649  -41.4793 C   0  0  0  0  0  0
  -26.8261   34.3560  -41.7285 C   0  0  0  0  0  0
  -26.9496   33.0139  -41.0307 C   0  0  0  0  0  0
  -28.1059   32.4530  -40.7810 N   0  0  0  0  0  0
  -27.7959   31.3073  -40.1084 C   0  0  0  0  0  0
  -28.6628   30.3450  -39.5810 C   0  0  0  0  0  0
  -28.1086   29.2541  -38.9103 C   0  0  0  0  0  0
  -29.0130   28.2753  -38.3083 C   0  0  0  0  0  0
  -29.0454   26.9638  -38.6171 C   0  0  0  0  0  0
  -29.9969   26.0438  -38.0467 C   0  0  0  0  0  0
  -30.6130   25.2690  -38.7810 O   0  0  0  0  0  0
  -30.1454   26.1085  -36.7127 N   0  0  0  0  0  0
  -31.0130   25.2020  -36.0940 O   0  0  0  0  0  0
  -26.7253   29.1269  -38.7810 C   0  0  0  0  0  0
  -25.8327   30.0690  -39.2957 C   0  0  0  0  0  0
  -26.3965   31.1642  -39.9531 C   0  0  0  0  0  0
  -25.8709   32.2860  -40.5594 N   0  0  0  0  0  0
  -24.4512   32.5882  -40.7379 C   0  0  0  0  0  0
  -23.8223   32.0483  -42.0257 C   0  0  0  0  0  0
  -22.4591   32.2707  -42.2388 C   0  0  0  0  0  0
  -21.8535   31.8378  -43.4157 C   0  0  0  0  0  0
  -22.6132   31.1823  -44.3810 C   0  0  0  0  0  0
  -23.9669   30.9352  -44.1741 C   0  0  0  0  0  0
  -24.5713   31.3669  -42.9976 C   0  0  0  0  0  0
  -28.8516   35.7909  -40.3443 H   0  0  0  0  0  0
  -28.0307   34.7450  -39.1774 H   0  0  0  0  0  0
  -27.8130   36.4690  -39.0980 H   0  0  0  0  0  0
  -25.8332   35.3617  -40.1110 H   0  0  0  0  0  0
  -27.3202   37.1107  -42.1302 H   0  0  0  0  0  0
  -26.3515   37.6928  -40.7810 H   0  0  0  0  0  0
  -25.5827   36.8218  -42.0971 H   0  0  0  0  0  0
  -25.9761   34.3553  -42.4122 H   0  0  0  0  0  0
  -27.6918   34.5199  -42.3721 H   0  0  0  0  0  0
  -29.7325   30.4525  -39.6817 H   0  0  0  0  0  0
  -29.6909   28.6780  -37.5667 H   0  0  0  0  0  0
  -28.3612   26.5414  -39.3401 H   0  0  0  0  0  0
  -29.6471   26.7071  -36.0629 H   0  0  0  0  0  0
  -31.7287   25.7543  -35.7670 H   0  0  0  0  0  0
  -26.3312   28.2802  -38.2425 H   0  0  0  0  0  0
  -24.7644   29.9547  -39.1765 H   0  0  0  0  0  0
  -24.3147   33.6687  -40.6857 H   0  0  0  0  0  0
  -23.9117   32.1822  -39.8801 H   0  0  0  0  0  0
  -21.8697   32.7918  -41.4974 H   0  0  0  0  0  0
  -20.8019   32.0181  -43.5862 H   0  0  0  0  0  0
  -22.1491   30.8690  -45.3036 H   0  0  0  0  0  0
  -24.5486   30.4246  -44.9277 H   0  0  0  0  0  0
  -25.6258   31.1784  -42.8621 H   0  0  0  0  0  0
  1  2  1  0  0  0
  1 27  1  0  0  0
  1 28  1  0  0  0
  1 29  1  0  0  0
  2  3  1  0  0  0
  2  4  1  0  0  0
  2 30  1  0  0  0
  3 31  1  0  0  0
  3 32  1  0  0  0
  3 33  1  0  0  0
  4  5  1  0  0  0
  4 34  1  0  0  0
  4 35  1  0  0  0
  5  6  2  0  0  0
  5 19  1  0  0  0
  6  7  1  0  0  0
  7  8  2  0  0  0
  7 18  1  0  0  0
  8  9  1  0  0  0
  8 36  1  0  0  0
  9 10  1  0  0  0
  9 16  2  0  0  0
 10 11  2  0  0  0
 10 37  1  0  0  0
 11 12  1  0  0  0
 11 38  1  0  0  0
 12 13  2  0  0  0
 12 14  1  0  0  0
 14 15  1  0  0  0
 14 39  1  0  0  0
 15 40  1  0  0  0
 16 17  1  0  0  0
 16 41  1  0  0  0
 17 18  2  0  0  0
 17 42  1  0  0  0
 18 19  1  0  0  0
 19 20  1  0  0  0
 20 21  1  0  0  0
 20 43  1  0  0  0
 20 44  1  0  0  0
 21 22  2  0  0  0
 21 26  1  0  0  0
 22 23  1  0  0  0
 22 45  1  0  0  0
 23 24  2  0  0  0
 23 46  1  0  0  0
 24 25  1  0  0  0
 24 47  1  0  0  0
 25 26  2  0  0  0
 25 48  1  0  0  0
 26 49  1  0  0  0
M  END
> <s_m_entry_id>
52985

> <s_m_entry_name>
dock_pv.204

> <s_m_Source_Path>
/home/csk/Desktop/cluster/DUD-E-result/hdac8

> <s_m_Source_File>
dock_pv.maegz

> <i_m_Source_File_Index>
204

> <chembl_id>
CHEMBL3648269

> <chembl_pref_name>
None

> <i_lp_mmshare_version>
53161

> <i_f3d_flags>
0

> <r_lp_tautomer_probability>
1

> <s_lp_Force_Field>
OPLS_2005

> <r_lp_Energy>
21.587599

> <b_lp_Chiralities_Consistent>
1

> <s_lp_Variant>
CHEMBL3192_lig856-1

> <s_i_glide_gridfile>
glide-grid_3f07

> <i_i_glide_lignum>
914

> <i_i_glide_rotatable_bonds>
8

> <r_i_docking_score>
-7.58159938256997

> <r_i_glide_ligand_efficiency>
-0.291599976252691

> <r_i_glide_ligand_efficiency_sa>
-0.863863782258096

> <r_i_glide_ligand_efficiency_ln>
-1.7805137377399

> <r_i_glide_gscore>
-7.58159938256997

> <r_i_glide_lipo>
-0.836105944957763

> <r_i_glide_hbond>
-0.281034555302706

> <r_i_glide_metal>
-2.3

> <r_i_glide_rewards>
-1.25415119340286

> <r_i_glide_evdw>
-35.0973434448242

> <r_i_glide_ecoul>
-12.638599395752

> <r_i_glide_erotb>
0.936059464042288

> <r_i_glide_esite>
-0.195710071344927

> <r_i_glide_emodel>
-69.6267167949443

> <r_i_glide_energy>
-47.7359428405762

> <r_i_glide_einternal>
9.01875114440918

> <i_i_glide_confnum>
20

> <i_i_glide_posenum>
346

> <r_i_glide_eff_state_penalty>
0

> <s_user_duplicate_titles>
CHEMBL3192_lig856

> <s_m_subgroup_title>
dock_pv

> <s_m_subgroupid>
dock_pv

> <b_m_subgroup_collapsed>
1

$$$$
CHEMBL3192_lig64
                    3D
 Schrodinger Suite 2021-1.
 36 38  0  0  1  0            999 V2000
  -19.9971   33.1315  -43.9307 C   0  0  0  0  0  0
  -20.6609   33.2690  -45.1523 C   0  0  0  0  0  0
  -21.9980   32.8942  -45.2970 C   0  0  0  0  0  0
  -20.6426   32.6138  -42.8026 C   0  0  0  0  0  0
  -21.9877   32.2292  -42.9166 C   0  0  0  0  0  0
  -22.6344   32.3777  -44.1626 C   0  0  0  0  0  0
  -23.9274   31.9474  -44.0959 O   0  0  0  0  0  0
  -24.1422   31.5203  -42.8120 C   0  0  0  0  0  0
  -22.9767   31.6690  -42.0524 C   0  0  0  0  0  0
  -25.4798   30.9663  -42.5296 C   0  0  0  0  0  0
  -26.2133   30.6973  -43.4854 O   0  0  0  0  0  0
  -25.9045   30.6025  -41.1308 C   0  0  0  0  0  0
  -26.9480   29.6781  -40.9564 C   0  0  0  0  0  0
  -27.3642   29.2602  -39.6879 C   0  0  0  0  0  0
  -26.7210   29.7878  -38.5690 C   0  0  0  0  0  0
  -25.7350   30.7610  -38.7144 C   0  0  0  0  0  0
  -25.3399   31.1778  -39.9829 C   0  0  0  0  0  0
  -28.4677   28.2871  -39.5810 C   0  0  0  0  0  0
  -28.6722   27.3667  -38.6083 C   0  0  0  0  0  0
  -29.8130   26.4741  -38.6345 C   0  0  0  0  0  0
  -29.9524   25.6928  -37.5528 N   0  0  0  0  0  0
  -30.6130   26.4690  -39.5809 O   0  0  0  0  0  0
  -31.0128   24.7703  -37.5245 O   0  0  0  0  0  0
  -18.9608   33.4307  -43.8585 H   0  0  0  0  0  0
  -20.1256   33.6708  -46.0010 H   0  0  0  0  0  0
  -22.5175   32.9934  -46.2380 H   0  0  0  0  0  0
  -20.1167   32.5120  -41.8646 H   0  0  0  0  0  0
  -22.8319   31.3849  -41.0213 H   0  0  0  0  0  0
  -27.4437   29.2690  -41.8236 H   0  0  0  0  0  0
  -27.0141   29.4775  -37.5810 H   0  0  0  0  0  0
  -25.2819   31.2099  -37.8430 H   0  0  0  0  0  0
  -24.6095   31.9700  -40.0380 H   0  0  0  0  0  0
  -29.1884   28.3734  -40.3810 H   0  0  0  0  0  0
  -27.9836   27.2690  -37.7812 H   0  0  0  0  0  0
  -29.3548   25.6397  -36.7392 H   0  0  0  0  0  0
  -30.5697   23.9125  -37.5810 H   0  0  0  0  0  0
  1  2  1  0  0  0
  1  4  2  0  0  0
  1 24  1  0  0  0
  2  3  2  0  0  0
  2 25  1  0  0  0
  3  6  1  0  0  0
  3 26  1  0  0  0
  4  5  1  0  0  0
  4 27  1  0  0  0
  5  9  1  0  0  0
  5  6  2  0  0  0
  6  7  1  0  0  0
  7  8  1  0  0  0
  8 10  1  0  0  0
  8  9  2  0  0  0
  9 28  1  0  0  0
 10 11  2  0  0  0
 10 12  1  0  0  0
 12 13  2  0  0  0
 12 17  1  0  0  0
 13 14  1  0  0  0
 13 29  1  0  0  0
 14 15  2  0  0  0
 14 18  1  0  0  0
 15 16  1  0  0  0
 15 30  1  0  0  0
 16 17  2  0  0  0
 16 31  1  0  0  0
 17 32  1  0  0  0
 18 19  2  0  0  0
 18 33  1  0  0  0
 19 20  1  0  0  0
 19 34  1  0  0  0
 20 21  1  0  0  0
 20 22  2  0  0  0
 21 23  1  0  0  0
 21 35  1  0  0  0
 23 36  1  0  0  0
M  END
> <s_m_entry_id>
52986

> <s_m_entry_name>
dock_pv.205

> <s_m_Source_Path>
/home/csk/Desktop/cluster/DUD-E-result/hdac8

> <s_m_Source_File>
dock_pv.maegz

> <i_m_Source_File_Index>
205

> <chembl_id>
CHEMBL390452

> <chembl_pref_name>
None

> <i_lp_mmshare_version>
53161

> <i_f3d_flags>
0

> <r_lp_tautomer_probability>
1

> <s_lp_Force_Field>
OPLS_2005

> <r_lp_Energy>
26.42799

> <b_lp_Chiralities_Consistent>
1

> <s_lp_Variant>
CHEMBL3192_lig64-1

> <s_i_glide_gridfile>
glide-grid_3f07

> <i_i_glide_lignum>
66

> <i_i_glide_rotatable_bonds>
6

> <r_i_docking_score>
-7.58113428167313

> <r_i_glide_ligand_efficiency>
-0.329614533985788

> <r_i_glide_ligand_efficiency_sa>
-0.937379888301628

> <r_i_glide_ligand_efficiency_ln>
-1.83318701123363

> <r_i_glide_gscore>
-7.58113428167313

> <r_i_glide_lipo>
-0.95704297284267

> <r_i_glide_hbond>
-0.307392135260891

> <r_i_glide_metal>
-2.3

> <r_i_glide_rewards>
-1.50836866944588

> <r_i_glide_evdw>
-25.5725555419922

> <r_i_glide_ecoul>
-13.7643728256226

> <r_i_glide_erotb>
0.978720806018436

> <r_i_glide_esite>
-0.143767609199132

> <r_i_glide_emodel>
-61.2124070509214

> <r_i_glide_energy>
-39.3369283676147

> <r_i_glide_einternal>
4.81108856201172

> <i_i_glide_confnum>
75

> <i_i_glide_posenum>
274

> <r_i_glide_eff_state_penalty>
0

> <s_user_duplicate_titles>
CHEMBL3192_lig64,390790

> <s_m_subgroup_title>
dock_pv

> <s_m_subgroupid>
dock_pv

> <b_m_subgroup_collapsed>
1

$$$$
CHEMBL3192_lig805
                    3D
 Schrodinger Suite 2021-1.
 41 43  0  0  1  0            999 V2000
  -21.2143   31.6690  -38.8540 O   0  0  0  0  0  0
  -21.3998   31.8560  -40.2439 C   0  0  0  0  0  0
  -22.8495   31.5349  -40.6512 C   0  0  0  0  0  0
  -23.8925   32.3439  -39.8618 C   0  0  0  0  0  0
  -25.2547   32.0588  -40.3011 N   0  0  0  0  0  0
  -26.0449   32.7572  -41.2014 C   0  0  0  0  0  0
  -27.2048   32.1813  -41.4181 N   0  0  0  0  0  0
  -27.2142   31.0854  -40.6010 C   0  0  0  0  0  0
  -28.2130   30.1181  -40.4236 C   0  0  0  0  0  0
  -27.9910   29.0852  -39.5038 C   0  0  0  0  0  0
  -29.0361   28.0655  -39.3218 C   0  0  0  0  0  0
  -29.1050   27.1270  -38.3485 C   0  0  0  0  0  0
  -30.1856   26.1732  -38.2705 C   0  0  0  0  0  0
  -31.0130   26.0690  -39.1810 O   0  0  0  0  0  0
  -30.2130   25.4435  -37.1444 N   0  0  0  0  0  0
  -31.2143   24.4690  -37.0087 O   0  0  0  0  0  0
  -26.7980   29.0410  -38.7774 C   0  0  0  0  0  0
  -25.7822   29.9801  -38.9380 C   0  0  0  0  0  0
  -26.0109   30.9928  -39.8678 C   0  0  0  0  0  0
  -25.6611   34.0028  -41.8524 C   0  0  0  0  0  0
  -25.7372   34.2301  -43.2357 C   0  0  0  0  0  0
  -25.3293   35.5050  -43.6061 C   0  0  0  0  0  0
  -24.8575   36.4615  -42.2417 S   0  0  0  0  0  0
  -25.2117   35.1383  -41.1810 C   0  0  0  0  0  0
  -21.6600   32.3857  -38.3810 H   0  0  0  0  0  0
  -20.6915   31.2353  -40.7939 H   0  0  0  0  0  0
  -21.1733   32.9031  -40.4500 H   0  0  0  0  0  0
  -23.0315   30.4690  -40.5101 H   0  0  0  0  0  0
  -22.9645   31.7261  -41.7190 H   0  0  0  0  0  0
  -23.6890   33.4109  -39.9233 H   0  0  0  0  0  0
  -23.8274   32.0690  -38.8073 H   0  0  0  0  0  0
  -29.1297   30.1752  -40.9918 H   0  0  0  0  0  0
  -29.8130   28.1018  -40.0702 H   0  0  0  0  0  0
  -28.3522   27.0657  -37.5810 H   0  0  0  0  0  0
  -29.5657   25.4675  -36.3680 H   0  0  0  0  0  0
  -30.7509   23.6402  -37.1810 H   0  0  0  0  0  0
  -26.6257   28.2446  -38.0699 H   0  0  0  0  0  0
  -24.8588   29.9091  -38.3811 H   0  0  0  0  0  0
  -26.0752   33.4852  -43.9415 H   0  0  0  0  0  0
  -25.2884   35.9226  -44.6014 H   0  0  0  0  0  0
  -25.0756   35.2530  -40.1133 H   0  0  0  0  0  0
  1  2  1  0  0  0
  1 25  1  0  0  0
  2  3  1  0  0  0
  2 26  1  0  0  0
  2 27  1  0  0  0
  3  4  1  0  0  0
  3 28  1  0  0  0
  3 29  1  0  0  0
  4  5  1  0  0  0
  4 30  1  0  0  0
  4 31  1  0  0  0
  5  6  1  0  0  0
  5 19  1  0  0  0
  6  7  2  0  0  0
  6 20  1  0  0  0
  7  8  1  0  0  0
  8  9  2  0  0  0
  8 19  1  0  0  0
  9 10  1  0  0  0
  9 32  1  0  0  0
 10 11  1  0  0  0
 10 17  2  0  0  0
 11 12  2  0  0  0
 11 33  1  0  0  0
 12 13  1  0  0  0
 12 34  1  0  0  0
 13 14  2  0  0  0
 13 15  1  0  0  0
 15 16  1  0  0  0
 15 35  1  0  0  0
 16 36  1  0  0  0
 17 18  1  0  0  0
 17 37  1  0  0  0
 18 19  2  0  0  0
 18 38  1  0  0  0
 20 21  1  0  0  0
 20 24  2  0  0  0
 21 22  2  0  0  0
 21 39  1  0  0  0
 22 23  1  0  0  0
 22 40  1  0  0  0
 23 24  1  0  0  0
 24 41  1  0  0  0
M  END
> <s_m_entry_id>
52987

> <s_m_entry_name>
dock_pv.206

> <s_m_Source_Path>
/home/csk/Desktop/cluster/DUD-E-result/hdac8

> <s_m_Source_File>
dock_pv.maegz

> <i_m_Source_File_Index>
206

> <chembl_id>
CHEMBL474546

> <chembl_pref_name>
None

> <i_lp_mmshare_version>
53161

> <i_f3d_flags>
0

> <r_lp_tautomer_probability>
1

> <s_lp_Force_Field>
OPLS_2005

> <r_lp_Energy>
28.064587

> <b_lp_Chiralities_Consistent>
1

> <s_lp_Variant>
CHEMBL3192_lig805-1

> <s_i_glide_gridfile>
glide-grid_3f07

> <i_i_glide_lignum>
859

> <i_i_glide_rotatable_bonds>
9

> <r_i_docking_score>
-7.57466015997315

> <r_i_glide_ligand_efficiency>
-0.315610839998881

> <r_i_glide_ligand_efficiency_sa>
-0.910379195781082

> <r_i_glide_ligand_efficiency_ln>
-1.8129637547878

> <r_i_glide_gscore>
-7.57466015997315

> <r_i_glide_lipo>
-0.796783826366308

> <r_i_glide_hbond>
-0.34168242123056

> <r_i_glide_metal>
-2.3

> <r_i_glide_rewards>
-1.30660709541945

> <r_i_glide_evdw>
-31.2772960662842

> <r_i_glide_ecoul>
-14.6972360610962

> <r_i_glide_erotb>
1.12632959775143

> <r_i_glide_esite>
-0.187466202229629

> <r_i_glide_emodel>
-71.5844098494259

> <r_i_glide_energy>
-45.9745321273804

> <r_i_glide_einternal>
2.74409627914429

> <i_i_glide_confnum>
43

> <i_i_glide_posenum>
182

> <r_i_glide_eff_state_penalty>
0

> <s_user_duplicate_titles>
CHEMBL3192_lig805

> <s_m_subgroup_title>
dock_pv

> <s_m_subgroupid>
dock_pv

> <b_m_subgroup_collapsed>
1

$$$$
CHEMBL3192_lig241
                    3D
 Schrodinger Suite 2021-1.
 50 53  0  0  1  0            999 V2000
  -27.2783   35.2121  -43.4014 C   0  0  0  0  0  0
  -27.3969   36.4275  -42.7298 C   0  0  0  0  0  0
  -27.2280   36.4752  -41.3475 C   0  0  0  0  0  0
  -26.9425   35.3163  -40.6307 C   0  0  0  0  0  0
  -26.8286   34.1041  -41.3014 C   0  0  0  0  0  0
  -26.9908   34.0386  -42.6908 C   0  0  0  0  0  0
  -25.5218   32.1385  -43.4188 N   0  0  0  0  0  0
  -22.1292   32.5866  -45.7214 C   0  0  0  0  0  0
  -23.1853   33.4323  -46.0525 C   0  0  0  0  0  0
  -24.3964   33.4147  -45.3560 C   0  0  0  0  0  0
  -22.2285   31.6985  -44.6529 C   0  0  0  0  0  0
  -23.7258   30.9203  -42.8321 N   0  0  0  0  0  0
  -23.4245   31.6654  -43.9313 C   0  0  0  0  0  0
  -24.5081   32.4958  -44.3017 C   0  0  0  0  0  0
  -24.9467   31.2574  -42.5072 C   0  0  0  0  0  0
  -25.5387   30.7915  -41.2100 C   0  0  0  0  0  0
  -24.9033   31.2390  -40.0471 C   0  0  0  0  0  0
  -25.3756   30.8677  -38.7923 C   0  0  0  0  0  0
  -26.4697   30.0160  -38.6876 C   0  0  0  0  0  0
  -27.1078   29.5208  -39.8287 C   0  0  0  0  0  0
  -26.6487   29.9393  -41.0922 C   0  0  0  0  0  0
  -28.2165   28.5430  -39.7056 C   0  0  0  0  0  0
  -28.4378   27.7162  -38.6532 C   0  0  0  0  0  0
  -29.5426   26.7823  -38.5923 C   0  0  0  0  0  0
  -29.8131   26.3011  -37.3673 N   0  0  0  0  0  0
  -30.2140   26.4696  -39.5806 O   0  0  0  0  0  0
  -30.8002   25.3042  -37.2466 O   0  0  0  0  0  0
  -26.8875   32.6703  -43.3791 C   0  0  2  0  0  0
  -27.5571   32.5602  -44.7816 C   0  0  0  0  0  0
  -27.4141   35.1989  -44.4738 H   0  0  0  0  0  0
  -27.6125   37.3319  -43.2801 H   0  0  0  0  0  0
  -27.3061   37.4194  -40.8247 H   0  0  0  0  0  0
  -26.8031   35.3547  -39.5589 H   0  0  0  0  0  0
  -26.6193   33.2173  -40.7276 H   0  0  0  0  0  0
  -21.2120   32.6308  -46.2905 H   0  0  0  0  0  0
  -23.0632   34.1251  -46.8723 H   0  0  0  0  0  0
  -25.1881   34.0935  -45.6281 H   0  0  0  0  0  0
  -21.4042   31.0575  -44.3818 H   0  0  0  0  0  0
  -24.0468   31.8984  -40.1072 H   0  0  0  0  0  0
  -24.8834   31.2431  -37.9095 H   0  0  0  0  0  0
  -26.8139   29.7446  -37.7014 H   0  0  0  0  0  0
  -27.1300   29.5768  -41.9878 H   0  0  0  0  0  0
  -28.9025   28.5279  -40.5375 H   0  0  0  0  0  0
  -27.7789   27.7247  -37.7994 H   0  0  0  0  0  0
  -29.3305   26.5087  -36.5009 H   0  0  0  0  0  0
  -30.2941   24.4951  -37.1115 H   0  0  0  0  0  0
  -27.4311   31.9777  -42.7431 H   0  0  0  0  0  0
  -28.6100   32.8461  -44.7750 H   0  0  0  0  0  0
  -27.0950   33.1996  -45.5288 H   0  0  0  0  0  0
  -27.4993   31.5385  -45.1616 H   0  0  0  0  0  0
  1  6  1  0  0  0
  1  2  2  0  0  0
  1 30  1  0  0  0
  2  3  1  0  0  0
  2 31  1  0  0  0
  3  4  2  0  0  0
  3 32  1  0  0  0
  4  5  1  0  0  0
  4 33  1  0  0  0
  5  6  2  0  0  0
  5 34  1  0  0  0
  6 28  1  0  0  0
  7 14  1  0  0  0
  7 15  1  0  0  0
  7 28  1  0  0  0
  8  9  2  0  0  0
  8 11  1  0  0  0
  8 35  1  0  0  0
  9 10  1  0  0  0
  9 36  1  0  0  0
 10 14  2  0  0  0
 10 37  1  0  0  0
 11 13  2  0  0  0
 11 38  1  0  0  0
 12 15  2  0  0  0
 12 13  1  0  0  0
 13 14  1  0  0  0
 15 16  1  0  0  0
 16 17  2  0  0  0
 16 21  1  0  0  0
 17 18  1  0  0  0
 17 39  1  0  0  0
 18 19  2  0  0  0
 18 40  1  0  0  0
 19 20  1  0  0  0
 19 41  1  0  0  0
 20 21  2  0  0  0
 20 22  1  0  0  0
 21 42  1  0  0  0
 22 23  2  0  0  0
 22 43  1  0  0  0
 23 24  1  0  0  0
 23 44  1  0  0  0
 24 25  1  0  0  0
 24 26  2  0  0  0
 25 27  1  0  0  0
 25 45  1  0  0  0
 27 46  1  0  0  0
 28 29  1  0  0  0
 28 47  1  0  0  0
 29 48  1  0  0  0
 29 49  1  0  0  0
 29 50  1  0  0  0
M  END
> <s_m_entry_id>
52988

> <s_m_entry_name>
dock_pv.207

> <s_m_Source_Path>
/home/csk/Desktop/cluster/DUD-E-result/hdac8

> <s_m_Source_File>
dock_pv.maegz

> <i_m_Source_File_Index>
207

> <chembl_id>
CHEMBL1094792

> <chembl_pref_name>
None

> <i_lp_mmshare_version>
53161

> <i_f3d_flags>
0

> <r_lp_tautomer_probability>
1

> <s_lp_Force_Field>
OPLS_2005

> <r_lp_Energy>
32.450484

> <b_lp_Chiralities_Consistent>
1

> <s_lp_Variant>
CHEMBL3192_lig241-1

> <s_i_glide_gridfile>
glide-grid_3f07

> <i_i_glide_lignum>
251

> <i_i_glide_rotatable_bonds>
7

> <r_i_docking_score>
-7.56893256273939

> <r_i_glide_ligand_efficiency>
-0.260997674577221

> <r_i_glide_ligand_efficiency_sa>
-0.801867546168432

> <r_i_glide_ligand_efficiency_ln>
-1.73309362529784

> <r_i_glide_gscore>
-7.56893256273939

> <r_i_glide_lipo>
-0.977562869973778

> <r_i_glide_hbond>
-0.51070310982712

> <r_i_glide_metal>
-2.3

> <r_i_glide_rewards>
-0.968684180037053

> <r_i_glide_evdw>
-26.2396717071533

> <r_i_glide_ecoul>
-14.1762790679932

> <r_i_glide_erotb>
0.792998529484183

> <r_i_glide_esite>
-0.166555486828987

> <r_i_glide_emodel>
-59.9636359824554

> <r_i_glide_energy>
-40.4159507751465

> <r_i_glide_einternal>
6.35426950454712

> <i_i_glide_confnum>
14

> <i_i_glide_posenum>
180

> <r_i_glide_eff_state_penalty>
0

> <s_user_duplicate_titles>
CHEMBL3192_lig241,625496

> <s_m_subgroup_title>
dock_pv

> <s_m_subgroupid>
dock_pv

> <b_m_subgroup_collapsed>
1

$$$$
CHEMBL3192_lig1036
                    3D
 Schrodinger Suite 2021-1.
 50 53  0  0  1  0            999 V2000
  -22.6098   30.5347  -48.5805 C   0  0  0  0  0  0
  -23.6359   31.2691  -47.7346 C   0  0  0  0  0  0
  -24.7369   31.8646  -48.3473 C   0  0  0  0  0  0
  -25.6699   32.5584  -47.5807 C   0  0  0  0  0  0
  -25.5223   32.6725  -46.1904 C   0  0  0  0  0  0
  -24.4230   32.0386  -45.5879 C   0  0  0  0  0  0
  -23.4849   31.3463  -46.3506 C   0  0  0  0  0  0
  -26.4934   33.4787  -45.3797 C   0  0  0  0  0  0
  -27.2146   34.5542  -45.9208 C   0  0  0  0  0  0
  -28.0237   35.2924  -45.0557 C   0  0  0  0  0  0
  -28.1258   35.0073  -43.7332 N   0  0  0  0  0  0
  -27.4128   33.9456  -43.2836 C   0  0  0  0  0  0
  -27.5581   33.6683  -41.9159 N   0  0  0  0  0  0
  -27.1024   32.4200  -41.2991 C   0  0  1  0  0  0
  -26.1443   32.7414  -40.1501 C   0  0  0  0  0  0
  -25.5586   31.4357  -39.5943 C   0  0  0  0  0  0
  -26.6188   30.3534  -39.3613 C   0  0  0  0  0  0
  -26.3146   29.2689  -38.5562 C   0  0  0  0  0  0
  -27.2134   28.2233  -38.3810 C   0  0  0  0  0  0
  -28.4584   28.2208  -38.9826 C   0  0  0  0  0  0
  -28.7772   29.3084  -39.8051 C   0  0  0  0  0  0
  -27.8854   30.3832  -39.9805 C   0  0  0  0  0  0
  -28.3050   31.6000  -40.7811 C   0  0  0  0  0  0
  -29.4130   27.0747  -38.7336 C   0  0  0  0  0  0
  -30.2303   26.7355  -39.5810 O   0  0  0  0  0  0
  -29.4154   26.5049  -37.5241 N   0  0  0  0  0  0
  -30.2132   25.3612  -37.3166 O   0  0  0  0  0  0
  -26.6057   33.1665  -44.0565 N   0  0  0  0  0  0
  -23.0884   29.7474  -49.1634 H   0  0  0  0  0  0
  -22.1458   31.2239  -49.2865 H   0  0  0  0  0  0
  -21.8219   30.0809  -47.9791 H   0  0  0  0  0  0
  -24.8663   31.8024  -49.4180 H   0  0  0  0  0  0
  -26.5101   33.0122  -48.0844 H   0  0  0  0  0  0
  -24.2718   32.1047  -44.5201 H   0  0  0  0  0  0
  -22.6356   30.8869  -45.8649 H   0  0  0  0  0  0
  -27.1327   34.8357  -46.9595 H   0  0  0  0  0  0
  -28.5910   36.1395  -45.4138 H   0  0  0  0  0  0
  -28.0640   34.3341  -41.3544 H   0  0  0  0  0  0
  -26.5685   31.8090  -42.0291 H   0  0  0  0  0  0
  -26.6618   33.2798  -39.3550 H   0  0  0  0  0  0
  -25.3348   33.3950  -40.4808 H   0  0  0  0  0  0
  -25.0098   31.6432  -38.6741 H   0  0  0  0  0  0
  -24.8263   31.0452  -40.3027 H   0  0  0  0  0  0
  -25.3487   29.2248  -38.0742 H   0  0  0  0  0  0
  -26.9584   27.4072  -37.7241 H   0  0  0  0  0  0
  -29.7447   29.3495  -40.2855 H   0  0  0  0  0  0
  -28.9314   31.2352  -41.5810 H   0  0  0  0  0  0
  -28.9252   32.2076  -40.1311 H   0  0  0  0  0  0
  -28.8545   26.7642  -36.7174 H   0  0  0  0  0  0
  -29.5792   24.6341  -37.2852 H   0  0  0  0  0  0
  1  2  1  0  0  0
  1 29  1  0  0  0
  1 30  1  0  0  0
  1 31  1  0  0  0
  2  3  2  0  0  0
  2  7  1  0  0  0
  3  4  1  0  0  0
  3 32  1  0  0  0
  4  5  2  0  0  0
  4 33  1  0  0  0
  5  6  1  0  0  0
  5  8  1  0  0  0
  6  7  2  0  0  0
  6 34  1  0  0  0
  7 35  1  0  0  0
  8  9  2  0  0  0
  8 28  1  0  0  0
  9 10  1  0  0  0
  9 36  1  0  0  0
 10 11  2  0  0  0
 10 37  1  0  0  0
 11 12  1  0  0  0
 12 13  1  0  0  0
 12 28  2  0  0  0
 13 14  1  0  0  0
 13 38  1  0  0  0
 14 15  1  0  0  0
 14 23  1  0  0  0
 14 39  1  0  0  0
 15 16  1  0  0  0
 15 40  1  0  0  0
 15 41  1  0  0  0
 16 17  1  0  0  0
 16 42  1  0  0  0
 16 43  1  0  0  0
 17 18  2  0  0  0
 17 22  1  0  0  0
 18 19  1  0  0  0
 18 44  1  0  0  0
 19 20  2  0  0  0
 19 45  1  0  0  0
 20 21  1  0  0  0
 20 24  1  0  0  0
 21 22  2  0  0  0
 21 46  1  0  0  0
 22 23  1  0  0  0
 23 47  1  0  0  0
 23 48  1  0  0  0
 24 25  2  0  0  0
 24 26  1  0  0  0
 26 27  1  0  0  0
 26 49  1  0  0  0
 27 50  1  0  0  0
M  END
> <s_m_entry_id>
52989

> <s_m_entry_name>
dock_pv.208

> <s_m_Source_Path>
/home/csk/Desktop/cluster/DUD-E-result/hdac8

> <s_m_Source_File>
dock_pv.maegz

> <i_m_Source_File_Index>
208

> <chembl_id>
CHEMBL3694288

> <chembl_pref_name>
None

> <i_lp_mmshare_version>
53161

> <i_f3d_flags>
0

> <r_lp_tautomer_probability>
0.999999987636

> <s_lp_Force_Field>
OPLS_2005

> <r_lp_Energy>
23.180562

> <b_lp_Chiralities_Consistent>
1

> <s_lp_Variant>
CHEMBL3192_lig1036-2

> <s_i_glide_gridfile>
glide-grid_3f07

> <i_i_glide_lignum>
1112

> <i_i_glide_rotatable_bonds>
6

> <r_i_docking_score>
-7.56648420498999

> <r_i_glide_ligand_efficiency>
-0.270231578749642

> <r_i_glide_ligand_efficiency_sa>
-0.820582230972265

> <r_i_glide_ligand_efficiency_ln>
-1.74656671614147

> <r_i_glide_gscore>
-7.56648420498999

> <r_i_glide_lipo>
-1.01100650700426

> <r_i_glide_hbond>
-0.603985723230321

> <r_i_glide_metal>
-2.27932457102271

> <r_i_glide_rewards>
-1.12553442670612

> <r_i_glide_evdw>
-19.4434394836426

> <r_i_glide_ecoul>
-13.5495252609253

> <r_i_glide_erotb>
0.68957501882608

> <r_i_glide_esite>
-0.231607232531728

> <r_i_glide_emodel>
-47.0539373504413

> <r_i_glide_energy>
-32.9929647445679

> <r_i_glide_einternal>
3.86423468589783

> <i_i_glide_confnum>
11

> <i_i_glide_posenum>
196

> <r_i_glide_eff_state_penalty>
0

> <s_user_duplicate_titles>
CHEMBL3192_lig1036

> <s_m_subgroup_title>
dock_pv

> <s_m_subgroupid>
dock_pv

> <b_m_subgroup_collapsed>
1

$$$$
CHEMBL3192_lig188
                    3D
 Schrodinger Suite 2021-1.
 47 49  0  0  1  0            999 V2000
  -28.9611   30.2725  -40.3810 C   0  0  0  0  0  0
  -28.3640   29.1950  -39.7371 C   0  0  0  0  0  0
  -27.0053   29.2688  -39.4068 C   0  0  0  0  0  0
  -28.2130   31.4024  -40.6921 C   0  0  0  0  0  0
  -26.8511   31.4685  -40.4033 C   0  0  0  0  0  0
  -26.2306   30.3835  -39.7533 C   0  0  0  0  0  0
  -24.5428   32.2909  -41.0186 C   0  0  2  0  0  0
  -26.0217   32.6871  -40.7950 C   0  0  0  0  0  0
  -24.0538   31.6690  -39.7802 N   0  0  1  0  0  0
  -24.7108   30.3835  -39.5450 C   0  0  0  0  0  0
  -23.7044   33.5411  -41.3785 C   0  0  0  0  0  0
  -23.4306   33.7633  -42.5588 O   0  0  0  0  0  0
  -23.3179   34.3539  -40.3810 N   0  0  0  0  0  0
  -24.4202   31.6013  -41.8577 H   0  0  0  0  0  0
  -29.1408   28.0774  -39.5304 O   0  0  0  0  0  0
  -28.9645   27.3518  -38.3141 C   0  0  0  0  0  0
  -30.0717   26.2894  -38.2050 C   0  0  0  0  0  0
  -30.7991   26.0690  -39.1810 O   0  0  0  0  0  0
  -30.2130   25.6614  -37.0259 N   0  0  0  0  0  0
  -31.1944   24.6615  -36.9205 O   0  0  0  0  0  0
  -22.4738   35.5367  -40.5145 C   0  0  0  0  0  0
  -20.9990   35.2018  -40.6969 C   0  0  0  0  0  0
  -20.2132   34.8992  -39.5811 C   0  0  0  0  0  0
  -18.8582   34.6212  -39.7400 C   0  0  0  0  0  0
  -18.2911   34.6572  -41.0125 C   0  0  0  0  0  0
  -19.0661   34.9713  -42.1274 C   0  0  0  0  0  0
  -20.4213   35.2495  -41.9688 C   0  0  0  0  0  0
  -30.0066   30.2263  -40.6482 H   0  0  0  0  0  0
  -26.5199   28.4281  -38.9378 H   0  0  0  0  0  0
  -28.6868   32.2372  -41.1810 H   0  0  0  0  0  0
  -26.4351   33.1623  -41.6863 H   0  0  0  0  0  0
  -26.0937   33.4120  -39.9809 H   0  0  0  0  0  0
  -23.0500   31.5429  -39.7990 H   0  0  0  0  0  0
  -24.4616   30.0499  -38.5367 H   0  0  0  0  0  0
  -24.2768   29.6690  -40.2387 H   0  0  0  0  0  0
  -23.5443   34.0691  -39.4295 H   0  0  0  0  0  0
  -29.0511   28.0481  -37.4840 H   0  0  0  0  0  0
  -27.9886   26.8689  -38.2924 H   0  0  0  0  0  0
  -29.6679   25.7822  -36.1816 H   0  0  0  0  0  0
  -30.6958   23.8390  -36.9908 H   0  0  0  0  0  0
  -22.8246   36.1713  -41.3312 H   0  0  0  0  0  0
  -22.5871   36.1307  -39.6059 H   0  0  0  0  0  0
  -20.6541   34.8685  -38.5942 H   0  0  0  0  0  0
  -18.2511   34.3786  -38.8802 H   0  0  0  0  0  0
  -17.2402   34.4406  -41.1355 H   0  0  0  0  0  0
  -18.6184   34.9983  -43.1100 H   0  0  0  0  0  0
  -21.0239   35.4886  -42.8334 H   0  0  0  0  0  0
  1  2  2  0  0  0
  1  4  1  0  0  0
  1 28  1  0  0  0
  2 15  1  0  0  0
  2  3  1  0  0  0
  3  6  2  0  0  0
  3 29  1  0  0  0
  4  5  2  0  0  0
  4 30  1  0  0  0
  5  6  1  0  0  0
  5  8  1  0  0  0
  6 10  1  0  0  0
  7 14  1  0  0  0
  7  8  1  0  0  0
  7  9  1  0  0  0
  7 11  1  0  0  0
  8 31  1  0  0  0
  8 32  1  0  0  0
  9 10  1  0  0  0
  9 33  1  0  0  0
 10 34  1  0  0  0
 10 35  1  0  0  0
 11 12  2  0  0  0
 11 13  1  0  0  0
 13 21  1  0  0  0
 13 36  1  0  0  0
 15 16  1  0  0  0
 16 17  1  0  0  0
 16 37  1  0  0  0
 16 38  1  0  0  0
 17 18  2  0  0  0
 17 19  1  0  0  0
 19 20  1  0  0  0
 19 39  1  0  0  0
 20 40  1  0  0  0
 21 22  1  0  0  0
 21 41  1  0  0  0
 21 42  1  0  0  0
 22 23  2  0  0  0
 22 27  1  0  0  0
 23 24  1  0  0  0
 23 43  1  0  0  0
 24 25  2  0  0  0
 24 44  1  0  0  0
 25 26  1  0  0  0
 25 45  1  0  0  0
 26 27  2  0  0  0
 26 46  1  0  0  0
 27 47  1  0  0  0
M  END
> <s_m_entry_id>
52990

> <s_m_entry_name>
dock_pv.209

> <s_m_Source_Path>
/home/csk/Desktop/cluster/DUD-E-result/hdac8

> <s_m_Source_File>
dock_pv.maegz

> <i_m_Source_File_Index>
209

> <chembl_id>
CHEMBL591716

> <chembl_pref_name>
None

> <i_lp_mmshare_version>
53161

> <i_f3d_flags>
0

> <r_lp_tautomer_probability>
1

> <s_lp_Force_Field>
OPLS_2005

> <r_lp_Energy>
28.319808

> <b_lp_Chiralities_Consistent>
1

> <s_lp_Variant>
CHEMBL3192_lig188-1

> <s_i_glide_gridfile>
glide-grid_3f07

> <i_i_glide_lignum>
198

> <i_i_glide_rotatable_bonds>
9

> <r_i_docking_score>
-7.55912677450781

> <r_i_glide_ligand_efficiency>
-0.290735645173377

> <r_i_glide_ligand_efficiency_sa>
-0.861303204836608

> <r_i_glide_ligand_efficiency_ln>
-1.77523611947515

> <r_i_glide_gscore>
-7.55912677450781

> <r_i_glide_lipo>
-0.861537442442057

> <r_i_glide_hbond>
-0.571859291269003

> <r_i_glide_metal>
-2.3

> <r_i_glide_rewards>
-0.861729244125673

> <r_i_glide_evdw>
-28.4356708526611

> <r_i_glide_ecoul>
-15.9882793426514

> <r_i_glide_erotb>
1.05969369027529

> <r_i_glide_esite>
-0.203669042915606

> <r_i_glide_emodel>
-64.0171848563728

> <r_i_glide_energy>
-44.4239501953125

> <r_i_glide_einternal>
8.88401985168457

> <i_i_glide_confnum>
39

> <i_i_glide_posenum>
146

> <r_i_glide_eff_state_penalty>
0

> <s_user_duplicate_titles>
CHEMBL3192_lig188

> <s_m_subgroup_title>
dock_pv

> <s_m_subgroupid>
dock_pv

> <b_m_subgroup_collapsed>
1

$$$$
CHEMBL3192_lig1077
                    3D
 Schrodinger Suite 2021-1.
 44 46  0  0  1  0            999 V2000
  -21.5763   31.2690  -43.2645 C   0  0  0  0  0  0
  -22.2130   30.6528  -44.3810 O   0  0  0  0  0  0
  -23.4813   31.0554  -44.7297 C   0  0  0  0  0  0
  -23.8823   30.8846  -46.0550 C   0  0  0  0  0  0
  -25.1554   31.2772  -46.4702 C   0  0  0  0  0  0
  -26.0468   31.8360  -45.5551 C   0  0  0  0  0  0
  -25.6694   31.9931  -44.2167 C   0  0  0  0  0  0
  -24.3828   31.6078  -43.8177 C   0  0  0  0  0  0
  -26.6175   32.5790  -43.2123 C   0  0  0  0  0  0
  -27.3609   33.5205  -43.4915 O   0  0  0  0  0  0
  -26.5612   31.9963  -42.0050 N   0  0  0  0  0  0
  -27.1942   32.4360  -40.7690 C   0  0  2  0  0  0
  -26.1891   32.4336  -39.6088 C   0  0  0  0  0  0
  -25.8515   31.0774  -39.1672 N   0  0  0  0  0  0
  -26.8555   30.0910  -39.1427 C   0  0  0  0  0  0
  -26.6046   28.9186  -38.4567 C   0  0  0  0  0  0
  -27.5236   27.8789  -38.4356 C   0  0  0  0  0  0
  -28.7431   28.0029  -39.0921 C   0  0  0  0  0  0
  -29.0130   29.2159  -39.7550 C   0  0  0  0  0  0
  -28.0994   30.2791  -39.7532 C   0  0  0  0  0  0
  -28.4367   31.6308  -40.3445 C   0  0  0  0  0  0
  -29.7447   26.8690  -39.1082 C   0  0  0  0  0  0
  -30.6130   26.8690  -39.9810 O   0  0  0  0  0  0
  -29.7207   25.9525  -38.1312 N   0  0  0  0  0  0
  -30.6130   24.8690  -38.2162 O   0  0  0  0  0  0
  -20.5388   30.9379  -43.2195 H   0  0  0  0  0  0
  -21.5717   32.3562  -43.3577 H   0  0  0  0  0  0
  -22.0453   30.9987  -42.3189 H   0  0  0  0  0  0
  -23.1910   30.4690  -46.7722 H   0  0  0  0  0  0
  -25.4501   31.1542  -47.5020 H   0  0  0  0  0  0
  -27.0308   32.1369  -45.8886 H   0  0  0  0  0  0
  -24.0826   31.7423  -42.7893 H   0  0  0  0  0  0
  -26.1032   31.0992  -41.9477 H   0  0  0  0  0  0
  -27.4930   33.4760  -40.9252 H   0  0  0  0  0  0
  -25.2681   32.9498  -39.8844 H   0  0  0  0  0  0
  -26.6130   32.9939  -38.7810 H   0  0  0  0  0  0
  -25.1016   31.0428  -38.4904 H   0  0  0  0  0  0
  -25.6453   28.8061  -37.9810 H   0  0  0  0  0  0
  -27.2608   26.9662  -37.9297 H   0  0  0  0  0  0
  -29.9559   29.3593  -40.2631 H   0  0  0  0  0  0
  -29.0130   32.2334  -39.6619 H   0  0  0  0  0  0
  -29.0960   31.4484  -41.1810 H   0  0  0  0  0  0
  -29.1065   25.9118  -37.3282 H   0  0  0  0  0  0
  -30.0427   24.0869  -38.1439 H   0  0  0  0  0  0
  1  2  1  0  0  0
  1 26  1  0  0  0
  1 27  1  0  0  0
  1 28  1  0  0  0
  2  3  1  0  0  0
  3  4  2  0  0  0
  3  8  1  0  0  0
  4  5  1  0  0  0
  4 29  1  0  0  0
  5  6  2  0  0  0
  5 30  1  0  0  0
  6  7  1  0  0  0
  6 31  1  0  0  0
  7  8  2  0  0  0
  7  9  1  0  0  0
  8 32  1  0  0  0
  9 10  2  0  0  0
  9 11  1  0  0  0
 11 12  1  0  0  0
 11 33  1  0  0  0
 12 13  1  0  0  0
 12 21  1  0  0  0
 12 34  1  0  0  0
 13 14  1  0  0  0
 13 35  1  0  0  0
 13 36  1  0  0  0
 14 15  1  0  0  0
 14 37  1  0  0  0
 15 16  2  0  0  0
 15 20  1  0  0  0
 16 17  1  0  0  0
 16 38  1  0  0  0
 17 18  2  0  0  0
 17 39  1  0  0  0
 18 19  1  0  0  0
 18 22  1  0  0  0
 19 20  2  0  0  0
 19 40  1  0  0  0
 20 21  1  0  0  0
 21 41  1  0  0  0
 21 42  1  0  0  0
 22 23  2  0  0  0
 22 24  1  0  0  0
 24 25  1  0  0  0
 24 43  1  0  0  0
 25 44  1  0  0  0
M  END
> <s_m_entry_id>
52991

> <s_m_entry_name>
dock_pv.210

> <s_m_Source_Path>
/home/csk/Desktop/cluster/DUD-E-result/hdac8

> <s_m_Source_File>
dock_pv.maegz

> <i_m_Source_File_Index>
210

> <chembl_id>
CHEMBL3694322

> <chembl_pref_name>
None

> <i_lp_mmshare_version>
53161

> <i_f3d_flags>
0

> <r_lp_tautomer_probability>
1

> <s_lp_Force_Field>
OPLS_2005

> <r_lp_Energy>
28.811058

> <b_lp_Chiralities_Consistent>
1

> <s_lp_Variant>
CHEMBL3192_lig1077-1

> <s_i_glide_gridfile>
glide-grid_3f07

> <i_i_glide_lignum>
1193

> <i_i_glide_rotatable_bonds>
7

> <r_i_docking_score>
-7.54981259113741

> <r_i_glide_ligand_efficiency>
-0.301992503645497

> <r_i_glide_ligand_efficiency_sa>
-0.883031436519289

> <r_i_glide_ligand_efficiency_ln>
-1.7895318337257

> <r_i_glide_gscore>
-7.54981259113741

> <r_i_glide_lipo>
-1.11724062940856

> <r_i_glide_hbond>
-0.422679363388218

> <r_i_glide_metal>
-2.3

> <r_i_glide_rewards>
-1.25455213819665

> <r_i_glide_evdw>
-14.5173091888428

> <r_i_glide_ecoul>
-15.5775861740112

> <r_i_glide_erotb>
0.813069875600305

> <r_i_glide_esite>
-0.205906950200466

> <r_i_glide_emodel>
-41.3097019983633

> <r_i_glide_energy>
-30.094895362854

> <r_i_glide_einternal>
6.56469964981079

> <i_i_glide_confnum>
8

> <i_i_glide_posenum>
305

> <r_i_glide_eff_state_penalty>
0

> <s_user_duplicate_titles>
CHEMBL3192_lig1077

> <s_m_subgroup_title>
dock_pv

> <s_m_subgroupid>
dock_pv

> <b_m_subgroup_collapsed>
1

$$$$
CHEMBL3192_lig1057
                    3D
 Schrodinger Suite 2021-1.
 51 54  0  0  1  0            999 V2000
  -26.6324   36.3685  -45.4120 C   0  0  0  0  0  0
  -26.6408   34.9853  -44.7939 C   0  0  0  0  0  0
  -26.2998   33.8511  -45.5306 C   0  0  0  0  0  0
  -26.3405   32.6185  -44.8594 C   0  0  0  0  0  0
  -26.0433   31.4013  -45.4391 O   0  0  0  0  0  0
  -25.6523   31.3419  -46.7544 C   0  0  0  0  0  0
  -24.2927   31.3453  -47.0703 C   0  0  0  0  0  0
  -23.8919   31.2968  -48.4036 C   0  0  0  0  0  0
  -24.8543   31.2384  -49.4111 C   0  0  0  0  0  0
  -26.2130   31.2184  -49.0979 C   0  0  0  0  0  0
  -26.6131   31.2690  -47.7651 C   0  0  0  0  0  0
  -26.6931   32.5324  -43.5509 N   0  0  0  0  0  0
  -27.0143   33.6918  -42.9152 C   0  0  0  0  0  0
  -27.4223   33.6918  -41.5718 N   0  0  0  0  0  0
  -27.2980   32.5706  -40.6358 C   0  0  2  0  0  0
  -25.8368   32.1242  -40.4779 C   0  0  0  0  0  0
  -25.7375   31.1901  -39.2662 C   0  0  0  0  0  0
  -26.8042   30.0906  -39.2813 C   0  0  0  0  0  0
  -26.6112   28.9591  -38.5061 C   0  0  0  0  0  0
  -27.5381   27.9334  -38.4324 C   0  0  0  0  0  0
  -28.7236   28.0060  -39.1502 C   0  0  0  0  0  0
  -28.9380   29.1558  -39.9394 C   0  0  0  0  0  0
  -27.9951   30.1927  -40.0277 C   0  0  0  0  0  0
  -28.2130   31.3697  -40.9783 C   0  0  0  0  0  0
  -29.7275   26.8690  -39.1288 C   0  0  0  0  0  0
  -30.6130   26.8690  -39.9810 O   0  0  0  0  0  0
  -29.6879   25.9520  -38.1519 N   0  0  0  0  0  0
  -30.5880   24.8690  -38.2185 O   0  0  0  0  0  0
  -27.0018   34.9204  -43.4882 N   0  0  0  0  0  0
  -26.3189   36.3405  -46.4560 H   0  0  0  0  0  0
  -27.6293   36.8081  -45.3698 H   0  0  0  0  0  0
  -25.9467   37.0211  -44.8708 H   0  0  0  0  0  0
  -26.0190   33.9276  -46.5699 H   0  0  0  0  0  0
  -23.5550   31.3967  -46.2827 H   0  0  0  0  0  0
  -22.8409   31.3106  -48.6539 H   0  0  0  0  0  0
  -24.5430   31.2129  -50.4452 H   0  0  0  0  0  0
  -26.9556   31.1731  -49.8818 H   0  0  0  0  0  0
  -27.6645   31.2597  -47.5154 H   0  0  0  0  0  0
  -27.4130   34.6132  -41.1594 H   0  0  0  0  0  0
  -27.5912   32.9868  -39.6709 H   0  0  0  0  0  0
  -25.1743   32.9806  -40.3373 H   0  0  0  0  0  0
  -25.4875   31.6007  -41.3687 H   0  0  0  0  0  0
  -25.8600   31.7708  -38.3515 H   0  0  0  0  0  0
  -24.7367   30.7577  -39.2145 H   0  0  0  0  0  0
  -25.6761   28.8690  -37.9810 H   0  0  0  0  0  0
  -27.3024   27.0768  -37.8258 H   0  0  0  0  0  0
  -29.8367   29.2458  -40.5326 H   0  0  0  0  0  0
  -28.0051   30.9982  -41.9810 H   0  0  0  0  0  0
  -29.2596   31.6690  -40.9561 H   0  0  0  0  0  0
  -29.0540   25.9064  -37.3647 H   0  0  0  0  0  0
  -30.0194   24.0846  -38.1585 H   0  0  0  0  0  0
  1  2  1  0  0  0
  1 30  1  0  0  0
  1 31  1  0  0  0
  1 32  1  0  0  0
  2  3  2  0  0  0
  2 29  1  0  0  0
  3  4  1  0  0  0
  3 33  1  0  0  0
  4  5  1  0  0  0
  4 12  2  0  0  0
  5  6  1  0  0  0
  6  7  2  0  0  0
  6 11  1  0  0  0
  7  8  1  0  0  0
  7 34  1  0  0  0
  8  9  2  0  0  0
  8 35  1  0  0  0
  9 10  1  0  0  0
  9 36  1  0  0  0
 10 11  2  0  0  0
 10 37  1  0  0  0
 11 38  1  0  0  0
 12 13  1  0  0  0
 13 14  1  0  0  0
 13 29  2  0  0  0
 14 15  1  0  0  0
 14 39  1  0  0  0
 15 16  1  0  0  0
 15 24  1  0  0  0
 15 40  1  0  0  0
 16 17  1  0  0  0
 16 41  1  0  0  0
 16 42  1  0  0  0
 17 18  1  0  0  0
 17 43  1  0  0  0
 17 44  1  0  0  0
 18 19  2  0  0  0
 18 23  1  0  0  0
 19 20  1  0  0  0
 19 45  1  0  0  0
 20 21  2  0  0  0
 20 46  1  0  0  0
 21 22  1  0  0  0
 21 25  1  0  0  0
 22 23  2  0  0  0
 22 47  1  0  0  0
 23 24  1  0  0  0
 24 48  1  0  0  0
 24 49  1  0  0  0
 25 26  2  0  0  0
 25 27  1  0  0  0
 27 28  1  0  0  0
 27 50  1  0  0  0
 28 51  1  0  0  0
M  END
> <s_m_entry_id>
52992

> <s_m_entry_name>
dock_pv.211

> <s_m_Source_Path>
/home/csk/Desktop/cluster/DUD-E-result/hdac8

> <s_m_Source_File>
dock_pv.maegz

> <i_m_Source_File_Index>
211

> <chembl_id>
CHEMBL3694305

> <chembl_pref_name>
None

> <i_lp_mmshare_version>
53161

> <i_f3d_flags>
0

> <r_lp_tautomer_probability>
0.999999917912647

> <s_lp_Force_Field>
OPLS_2005

> <r_lp_Energy>
23.520637

> <b_lp_Chiralities_Consistent>
1

> <s_lp_Variant>
CHEMBL3192_lig1057-1

> <s_i_glide_gridfile>
glide-grid_3f07

> <i_i_glide_lignum>
1153

> <i_i_glide_rotatable_bonds>
7

> <r_i_docking_score>
-7.54948379852742

> <r_i_glide_ligand_efficiency>
-0.260327027535428

> <r_i_glide_ligand_efficiency_sa>
-0.79980710598015

> <r_i_glide_ligand_efficiency_ln>
-1.7286403514714

> <r_i_glide_gscore>
-7.54948379852742

> <r_i_glide_lipo>
-0.956690345627343

> <r_i_glide_hbond>
-0.304

> <r_i_glide_metal>
-2.3

> <r_i_glide_rewards>
-1.04467541773428

> <r_i_glide_evdw>
-18.6356430053711

> <r_i_glide_ecoul>
-16.9004669189453

> <r_i_glide_erotb>
0.767691931779491

> <r_i_glide_esite>
-0.244957778834929

> <r_i_glide_emodel>
-50.7073836800564

> <r_i_glide_energy>
-35.5361099243164

> <r_i_glide_einternal>
7.15708208084106

> <i_i_glide_confnum>
27

> <i_i_glide_posenum>
328

> <r_i_glide_eff_state_penalty>
0

> <s_user_duplicate_titles>
CHEMBL3192_lig1057

> <s_m_subgroup_title>
dock_pv

> <s_m_subgroupid>
dock_pv

> <b_m_subgroup_collapsed>
1

$$$$
CHEMBL3192_lig913
                    3D
 Schrodinger Suite 2021-1.
 24 24  0  0  1  0            999 V2000
  -29.8197   26.4690  -38.2273 C   0  0  0  0  0  0
  -28.7680   27.4459  -38.3810 C   0  0  0  0  0  0
  -28.7216   28.2910  -39.4364 C   0  0  0  0  0  0
  -30.4976   26.0690  -39.1810 O   0  0  0  0  0  0
  -30.0190   26.0689  -36.9619 N   0  0  0  0  0  0
  -27.6958   29.3153  -39.7231 C   0  0  0  0  0  0
  -26.6007   29.5353  -38.8829 C   0  0  0  0  0  0
  -25.6232   30.4682  -39.2206 C   0  0  0  0  0  0
  -25.7245   31.1880  -40.4149 C   0  0  0  0  0  0
  -26.8336   30.9941  -41.2419 C   0  0  0  0  0  0
  -27.8130   30.0690  -40.8946 C   0  0  0  0  0  0
  -24.6289   32.1626  -40.8447 C   0  0  0  0  0  0
  -24.2682   31.9060  -42.1036 F   0  0  0  0  0  0
  -25.0946   33.4097  -40.7810 F   0  0  0  0  0  0
  -23.5396   32.0690  -40.0803 F   0  0  0  0  0  0
  -31.0129   25.1058  -36.7170 O   0  0  0  0  0  0
  -28.0217   27.4673  -37.6014 H   0  0  0  0  0  0
  -29.5076   28.2370  -40.1750 H   0  0  0  0  0  0
  -29.5080   26.3489  -36.1332 H   0  0  0  0  0  0
  -26.4747   28.9622  -37.9809 H   0  0  0  0  0  0
  -24.7762   30.6080  -38.5633 H   0  0  0  0  0  0
  -26.9270   31.5481  -42.1653 H   0  0  0  0  0  0
  -28.6495   29.9238  -41.5630 H   0  0  0  0  0  0
  -30.5171   24.2896  -36.5960 H   0  0  0  0  0  0
  1  2  1  0  0  0
  1  4  2  0  0  0
  1  5  1  0  0  0
  2  3  2  0  0  0
  2 17  1  0  0  0
  3  6  1  0  0  0
  3 18  1  0  0  0
  5 16  1  0  0  0
  5 19  1  0  0  0
  6  7  1  0  0  0
  6 11  2  0  0  0
  7  8  2  0  0  0
  7 20  1  0  0  0
  8  9  1  0  0  0
  8 21  1  0  0  0
  9 10  2  0  0  0
  9 12  1  0  0  0
 10 11  1  0  0  0
 10 22  1  0  0  0
 11 23  1  0  0  0
 12 13  1  0  0  0
 12 14  1  0  0  0
 12 15  1  0  0  0
 16 24  1  0  0  0
M  END
> <s_m_entry_id>
52993

> <s_m_entry_name>
dock_pv.212

> <s_m_Source_Path>
/home/csk/Desktop/cluster/DUD-E-result/hdac8

> <s_m_Source_File>
dock_pv.maegz

> <i_m_Source_File_Index>
212

> <chembl_id>
CHEMBL3394285

> <chembl_pref_name>
None

> <i_lp_mmshare_version>
53161

> <i_f3d_flags>
0

> <r_lp_tautomer_probability>
1

> <s_lp_Force_Field>
OPLS_2005

> <r_lp_Energy>
13.986318

> <b_lp_Chiralities_Consistent>
1

> <s_lp_Variant>
CHEMBL3192_lig913-1

> <s_i_glide_gridfile>
glide-grid_3f07

> <i_i_glide_lignum>
971

> <i_i_glide_rotatable_bonds>
5

> <r_i_docking_score>
-7.54924856195203

> <r_i_glide_ligand_efficiency>
-0.471828035122002

> <r_i_glide_ligand_efficiency_sa>
-1.18893214566269

> <r_i_glide_ligand_efficiency_ln>
-2.0010791310085

> <r_i_glide_gscore>
-7.54924856195203

> <r_i_glide_lipo>
-0.880208747379101

> <r_i_glide_hbond>
-0.342511897337536

> <r_i_glide_metal>
-2.3

> <r_i_glide_rewards>
-2.10790020380546

> <r_i_glide_evdw>
-23.5182590484619

> <r_i_glide_ecoul>
-9.76175785064697

> <r_i_glide_erotb>
0.960065707462927

> <r_i_glide_esite>
-0.238516790872727

> <r_i_glide_emodel>
-52.8213843473553

> <r_i_glide_energy>
-33.2800168991089

> <r_i_glide_einternal>
1.28045988082886

> <i_i_glide_confnum>
1

> <i_i_glide_posenum>
113

> <r_i_glide_eff_state_penalty>
0

> <s_user_duplicate_titles>
CHEMBL3192_lig913

> <s_m_subgroup_title>
dock_pv

> <s_m_subgroupid>
dock_pv

> <b_m_subgroup_collapsed>
1

$$$$
CHEMBL3192_lig510
                    3D
 Schrodinger Suite 2021-1.
 32 33  0  0  1  0            999 V2000
  -24.1596   31.8113  -43.6475 C   0  0  0  0  0  0
  -24.8239   30.6880  -43.1626 C   0  0  0  0  0  0
  -25.0127   30.5370  -41.7900 C   0  0  0  0  0  0
  -24.5582   31.5228  -40.9028 C   0  0  0  0  0  0
  -23.8976   32.6455  -41.4030 C   0  0  0  0  0  0
  -23.6923   32.7895  -42.7729 C   0  0  0  0  0  0
  -24.7693   31.4740  -39.5131 N   0  0  0  0  0  0
  -25.3921   30.3653  -38.7813 C   0  0  0  0  0  0
  -26.8278   30.0302  -39.1954 C   0  0  0  0  0  0
  -27.5707   30.9183  -39.9823 C   0  0  0  0  0  0
  -28.7833   30.5310  -40.5208 C   0  0  0  0  0  0
  -29.2944   29.2794  -40.2266 C   0  0  0  0  0  0
  -28.6703   28.4318  -39.3039 C   0  0  0  0  0  0
  -27.4123   28.8132  -38.8009 C   0  0  0  0  0  0
  -29.4123   27.1862  -38.8555 C   0  0  0  0  0  0
  -29.3187   26.8689  -37.5769 N   0  0  0  0  0  0
  -30.2207   26.6088  -39.5785 O   0  0  0  0  0  0
  -30.2130   25.9124  -37.0450 O   0  0  0  0  0  0
  -24.0047   31.9256  -44.7106 H   0  0  0  0  0  0
  -25.1815   29.9318  -43.8460 H   0  0  0  0  0  0
  -25.5135   29.6522  -41.4308 H   0  0  0  0  0  0
  -23.5455   33.4148  -40.7297 H   0  0  0  0  0  0
  -23.1789   33.6599  -43.1539 H   0  0  0  0  0  0
  -24.4531   32.2689  -38.9637 H   0  0  0  0  0  0
  -25.3895   30.6266  -37.7238 H   0  0  0  0  0  0
  -24.7669   29.4790  -38.8899 H   0  0  0  0  0  0
  -27.1779   31.8884  -40.2481 H   0  0  0  0  0  0
  -29.3185   31.1930  -41.1794 H   0  0  0  0  0  0
  -30.2138   28.9966  -40.6999 H   0  0  0  0  0  0
  -26.8772   28.1566  -38.1291 H   0  0  0  0  0  0
  -28.7484   27.3172  -36.8607 H   0  0  0  0  0  0
  -30.7904   26.4255  -36.4729 H   0  0  0  0  0  0
  1  2  2  0  0  0
  1  6  1  0  0  0
  1 19  1  0  0  0
  2  3  1  0  0  0
  2 20  1  0  0  0
  3  4  2  0  0  0
  3 21  1  0  0  0
  4  5  1  0  0  0
  4  7  1  0  0  0
  5  6  2  0  0  0
  5 22  1  0  0  0
  6 23  1  0  0  0
  7  8  1  0  0  0
  7 24  1  0  0  0
  8  9  1  0  0  0
  8 25  1  0  0  0
  8 26  1  0  0  0
  9 10  2  0  0  0
  9 14  1  0  0  0
 10 11  1  0  0  0
 10 27  1  0  0  0
 11 12  2  0  0  0
 11 28  1  0  0  0
 12 13  1  0  0  0
 12 29  1  0  0  0
 13 14  2  0  0  0
 13 15  1  0  0  0
 14 30  1  0  0  0
 15 16  1  0  0  0
 15 17  2  0  0  0
 16 18  1  0  0  0
 16 31  1  0  0  0
 18 32  1  0  0  0
M  END
> <s_m_entry_id>
52994

> <s_m_entry_name>
dock_pv.213

> <s_m_Source_Path>
/home/csk/Desktop/cluster/DUD-E-result/hdac8

> <s_m_Source_File>
dock_pv.maegz

> <i_m_Source_File_Index>
213

> <chembl_id>
CHEMBL2381523

> <chembl_pref_name>
None

> <i_lp_mmshare_version>
53161

> <i_f3d_flags>
0

> <r_lp_tautomer_probability>
1

> <s_lp_Force_Field>
OPLS_2005

> <r_lp_Energy>
22.251311

> <b_lp_Chiralities_Consistent>
1

> <s_lp_Variant>
CHEMBL3192_lig510-1

> <s_i_glide_gridfile>
glide-grid_3f07

> <i_i_glide_lignum>
531

> <i_i_glide_rotatable_bonds>
6

> <r_i_docking_score>
-7.54671232634113

> <r_i_glide_ligand_efficiency>
-0.419261795907841

> <r_i_glide_ligand_efficiency_sa>
-1.09877674248742

> <r_i_glide_ligand_efficiency_ln>
-1.93984348951326

> <r_i_glide_gscore>
-7.54671232634113

> <r_i_glide_lipo>
-1.16169813381703

> <r_i_glide_hbond>
-0.663776813982399

> <r_i_glide_metal>
-2.3

> <r_i_glide_rewards>
-1.9966148909272

> <r_i_glide_evdw>
-15.5131378173828

> <r_i_glide_ecoul>
-12.5287103652954

> <r_i_glide_erotb>
1.47726340772354

> <r_i_glide_esite>
-0.246922449674596

> <r_i_glide_emodel>
-44.1748674101193

> <r_i_glide_energy>
-28.0418481826782

> <r_i_glide_einternal>
2.45648336410522

> <i_i_glide_confnum>
28

> <i_i_glide_posenum>
186

> <r_i_glide_eff_state_penalty>
0

> <s_user_duplicate_titles>
CHEMBL3192_lig510

> <s_m_subgroup_title>
dock_pv

> <s_m_subgroupid>
dock_pv

> <b_m_subgroup_collapsed>
1

$$$$
CHEMBL3192_lig918
                    3D
 Schrodinger Suite 2021-1.
 47 49  0  0  1  0            999 V2000
  -23.4833   33.6723  -41.2713 C   0  0  0  0  0  0
  -24.5790   32.6089  -41.3125 C   0  0  0  0  0  0
  -25.0527   32.0978  -40.1521 C   0  0  0  0  0  0
  -22.1353   33.1586  -41.4967 N   0  0  2  0  0  0
  -26.1089   31.0952  -39.9425 C   0  0  0  0  0  0
  -25.9079   30.1343  -38.9537 C   0  0  0  0  0  0
  -26.8565   29.1421  -38.7426 C   0  0  0  0  0  0
  -28.0173   29.0994  -39.5161 C   0  0  0  0  0  0
  -28.2279   30.0768  -40.4926 C   0  0  0  0  0  0
  -27.2804   31.0724  -40.7036 C   0  0  0  0  0  0
  -29.0397   28.0589  -39.3314 C   0  0  0  0  0  0
  -29.1050   27.1303  -38.3500 C   0  0  0  0  0  0
  -30.1837   26.1730  -38.2717 C   0  0  0  0  0  0
  -31.0130   26.0690  -39.1810 O   0  0  0  0  0  0
  -30.2130   25.4446  -37.1447 N   0  0  0  0  0  0
  -31.2136   24.4690  -37.0106 O   0  0  0  0  0  0
  -25.0202   32.1560  -42.6577 C   0  0  0  0  0  0
  -21.5648   32.5741  -40.2903 C   0  0  0  0  0  0
  -21.8629   31.1237  -39.9810 C   0  0  0  0  0  0
  -20.5055   31.5153  -40.4999 C   0  0  0  0  0  0
  -25.4713   33.0791  -43.6083 C   0  0  0  0  0  0
  -25.9004   32.6452  -44.8607 C   0  0  0  0  0  0
  -25.8770   31.2876  -45.1687 C   0  0  0  0  0  0
  -25.4305   30.3584  -44.2337 C   0  0  0  0  0  0
  -25.0059   30.7941  -42.9812 C   0  0  0  0  0  0
  -26.2923   30.8692  -46.3850 F   0  0  0  0  0  0
  -23.7009   34.4194  -42.0340 H   0  0  0  0  0  0
  -23.5156   34.2051  -40.3173 H   0  0  0  0  0  0
  -24.6198   32.4690  -39.2350 H   0  0  0  0  0  0
  -21.5201   33.8592  -41.8857 H   0  0  0  0  0  0
  -25.0042   30.1417  -38.3606 H   0  0  0  0  0  0
  -26.6657   28.4022  -37.9812 H   0  0  0  0  0  0
  -29.1208   30.0692  -41.1015 H   0  0  0  0  0  0
  -27.4527   31.8166  -41.4671 H   0  0  0  0  0  0
  -29.8121   28.0746  -40.0856 H   0  0  0  0  0  0
  -28.3534   27.0839  -37.5811 H   0  0  0  0  0  0
  -29.5658   25.4674  -36.3680 H   0  0  0  0  0  0
  -30.7492   23.6403  -37.1812 H   0  0  0  0  0  0
  -21.4142   33.2697  -39.4606 H   0  0  0  0  0  0
  -21.9771   30.8422  -38.9340 H   0  0  0  0  0  0
  -22.5559   30.5877  -40.6275 H   0  0  0  0  0  0
  -20.2286   31.2414  -41.5187 H   0  0  0  0  0  0
  -19.6526   31.5005  -39.8212 H   0  0  0  0  0  0
  -25.5022   34.1341  -43.3783 H   0  0  0  0  0  0
  -26.2507   33.3574  -45.5929 H   0  0  0  0  0  0
  -25.4153   29.3074  -44.4814 H   0  0  0  0  0  0
  -24.6676   30.0721  -42.2525 H   0  0  0  0  0  0
  1  2  1  0  0  0
  1  4  1  0  0  0
  1 27  1  0  0  0
  1 28  1  0  0  0
  2  3  2  0  0  0
  2 17  1  0  0  0
  3  5  1  0  0  0
  3 29  1  0  0  0
  4 18  1  0  0  0
  4 30  1  0  0  0
  5  6  1  0  0  0
  5 10  2  0  0  0
  6  7  2  0  0  0
  6 31  1  0  0  0
  7  8  1  0  0  0
  7 32  1  0  0  0
  8  9  2  0  0  0
  8 11  1  0  0  0
  9 10  1  0  0  0
  9 33  1  0  0  0
 10 34  1  0  0  0
 11 12  2  0  0  0
 11 35  1  0  0  0
 12 13  1  0  0  0
 12 36  1  0  0  0
 13 14  2  0  0  0
 13 15  1  0  0  0
 15 16  1  0  0  0
 15 37  1  0  0  0
 16 38  1  0  0  0
 17 21  2  0  0  0
 17 25  1  0  0  0
 18 19  1  0  0  0
 18 20  1  0  0  0
 18 39  1  0  0  0
 19 20  1  0  0  0
 19 40  1  0  0  0
 19 41  1  0  0  0
 20 42  1  0  0  0
 20 43  1  0  0  0
 21 22  1  0  0  0
 21 44  1  0  0  0
 22 23  2  0  0  0
 22 45  1  0  0  0
 23 24  1  0  0  0
 23 26  1  0  0  0
 24 25  2  0  0  0
 24 46  1  0  0  0
 25 47  1  0  0  0
M  END
> <s_m_entry_id>
52995

> <s_m_entry_name>
dock_pv.214

> <s_m_Source_Path>
/home/csk/Desktop/cluster/DUD-E-result/hdac8

> <s_m_Source_File>
dock_pv.maegz

> <i_m_Source_File_Index>
214

> <chembl_id>
CHEMBL3758457

> <chembl_pref_name>
None

> <i_lp_mmshare_version>
53161

> <i_f3d_flags>
0

> <r_lp_tautomer_probability>
1

> <s_lp_Force_Field>
OPLS_2005

> <r_lp_Energy>
36.88931

> <b_lp_Chiralities_Consistent>
1

> <s_lp_Variant>
CHEMBL3192_lig918-1

> <s_i_glide_gridfile>
glide-grid_3f07

> <i_i_glide_lignum>
979

> <i_i_glide_rotatable_bonds>
9

> <r_i_docking_score>
-7.54499721022575

> <r_i_glide_ligand_efficiency>
-0.290192200393298

> <r_i_glide_ligand_efficiency_sa>
-0.859693251813974

> <r_i_glide_ligand_efficiency_ln>
-1.77191783766639

> <r_i_glide_gscore>
-7.54499721022575

> <r_i_glide_lipo>
-1.27901862455694

> <r_i_glide_hbond>
-0.237508543602103

> <r_i_glide_metal>
-2.3

> <r_i_glide_rewards>
-1.27032425731842

> <r_i_glide_evdw>
-33.6791114807129

> <r_i_glide_ecoul>
-11.6660995483398

> <r_i_glide_erotb>
1.07572472153834

> <r_i_glide_esite>
-0.1

> <r_i_glide_emodel>
-69.7626317727964

> <r_i_glide_energy>
-45.3452110290527

> <r_i_glide_einternal>
3.25251960754395

> <i_i_glide_confnum>
3

> <i_i_glide_posenum>
97

> <r_i_glide_eff_state_penalty>
0

> <s_user_duplicate_titles>
CHEMBL3192_lig918

> <s_m_subgroup_title>
dock_pv

> <s_m_subgroupid>
dock_pv

> <b_m_subgroup_collapsed>
1

$$$$
CHEMBL3192_lig271
                    3D
 Schrodinger Suite 2021-1.
 50 52  0  0  1  0            999 V2000
  -23.8505   31.5456  -41.3545 N   0  0  0  0  0  0
  -23.3982   30.9107  -39.2980 C   0  0  0  0  0  0
  -22.2489   31.2902  -39.8242 N   0  0  0  0  0  0
  -22.5143   31.6690  -41.0435 C   0  0  0  0  0  0
  -24.4588   31.0554  -40.2044 C   0  0  0  0  0  0
  -25.9242   30.7688  -40.0353 C   0  0  0  0  0  0
  -26.8818   31.6900  -40.4688 C   0  0  0  0  0  0
  -28.2387   31.3972  -40.3810 C   0  0  0  0  0  0
  -28.6618   30.2090  -39.7947 C   0  0  0  0  0  0
  -27.7302   29.3013  -39.2773 C   0  0  0  0  0  0
  -26.3667   29.5912  -39.4148 C   0  0  0  0  0  0
  -28.1829   28.0778  -38.5804 C   0  0  0  0  0  0
  -29.2837   27.3796  -38.9373 C   0  0  0  0  0  0
  -29.8537   26.2786  -38.1965 C   0  0  0  0  0  0
  -29.9522   26.4690  -36.8708 N   0  0  0  0  0  0
  -30.3305   25.3056  -38.7810 O   0  0  0  0  0  0
  -30.6130   25.4952  -36.1061 O   0  0  0  0  0  0
  -21.4509   32.1605  -42.0064 C   0  0  0  0  0  0
  -23.3844   30.4307  -37.8659 C   0  0  0  0  0  0
  -24.4324   31.8276  -42.6711 C   0  0  0  0  0  0
  -24.3837   30.5871  -43.5824 C   0  0  0  0  0  0
  -24.8488   30.9195  -44.9912 C   0  0  0  0  0  0
  -23.9146   31.2690  -45.9706 C   0  0  0  0  0  0
  -24.3464   31.6214  -47.2471 C   0  0  0  0  0  0
  -25.7092   31.6196  -47.5403 C   0  0  0  0  0  0
  -26.6447   31.2690  -46.5690 C   0  0  0  0  0  0
  -26.2130   30.9167  -45.2924 C   0  0  0  0  0  0
  -26.5817   32.6451  -40.8714 H   0  0  0  0  0  0
  -28.9639   32.0979  -40.7601 H   0  0  0  0  0  0
  -29.7223   30.0214  -39.7102 H   0  0  0  0  0  0
  -25.6442   28.8826  -39.0447 H   0  0  0  0  0  0
  -27.6061   27.7828  -37.7140 H   0  0  0  0  0  0
  -29.8130   27.6488  -39.8373 H   0  0  0  0  0  0
  -29.5417   27.2126  -36.3140 H   0  0  0  0  0  0
  -29.9030   25.0557  -35.6282 H   0  0  0  0  0  0
  -20.4545   32.1412  -41.5630 H   0  0  0  0  0  0
  -21.4047   31.5504  -42.9086 H   0  0  0  0  0  0
  -21.6340   33.1892  -42.3170 H   0  0  0  0  0  0
  -24.2130   29.7768  -37.6170 H   0  0  0  0  0  0
  -22.4745   29.8844  -37.6229 H   0  0  0  0  0  0
  -23.4129   31.2690  -37.1810 H   0  0  0  0  0  0
  -25.4529   32.1765  -42.5658 H   0  0  0  0  0  0
  -23.8754   32.6534  -43.1153 H   0  0  0  0  0  0
  -23.3732   30.1784  -43.6280 H   0  0  0  0  0  0
  -25.0141   29.7925  -43.1797 H   0  0  0  0  0  0
  -22.8579   31.2811  -45.7423 H   0  0  0  0  0  0
  -23.6279   31.8991  -48.0044 H   0  0  0  0  0  0
  -26.0451   31.8959  -48.5291 H   0  0  0  0  0  0
  -27.6993   31.2715  -46.8054 H   0  0  0  0  0  0
  -26.9404   30.6566  -44.5370 H   0  0  0  0  0  0
  1  4  1  0  0  0
  1  5  1  0  0  0
  1 20  1  0  0  0
  2  3  1  0  0  0
  2 19  1  0  0  0
  2  5  2  0  0  0
  3  4  2  0  0  0
  4 18  1  0  0  0
  5  6  1  0  0  0
  6  7  2  0  0  0
  6 11  1  0  0  0
  7  8  1  0  0  0
  7 28  1  0  0  0
  8  9  2  0  0  0
  8 29  1  0  0  0
  9 10  1  0  0  0
  9 30  1  0  0  0
 10 11  2  0  0  0
 10 12  1  0  0  0
 11 31  1  0  0  0
 12 13  2  0  0  0
 12 32  1  0  0  0
 13 14  1  0  0  0
 13 33  1  0  0  0
 14 15  1  0  0  0
 14 16  2  0  0  0
 15 17  1  0  0  0
 15 34  1  0  0  0
 17 35  1  0  0  0
 18 36  1  0  0  0
 18 37  1  0  0  0
 18 38  1  0  0  0
 19 39  1  0  0  0
 19 40  1  0  0  0
 19 41  1  0  0  0
 20 21  1  0  0  0
 20 42  1  0  0  0
 20 43  1  0  0  0
 21 22  1  0  0  0
 21 44  1  0  0  0
 21 45  1  0  0  0
 22 23  2  0  0  0
 22 27  1  0  0  0
 23 24  1  0  0  0
 23 46  1  0  0  0
 24 25  2  0  0  0
 24 47  1  0  0  0
 25 26  1  0  0  0
 25 48  1  0  0  0
 26 27  2  0  0  0
 26 49  1  0  0  0
 27 50  1  0  0  0
M  END
> <s_m_entry_id>
52996

> <s_m_entry_name>
dock_pv.215

> <s_m_Source_Path>
/home/csk/Desktop/cluster/DUD-E-result/hdac8

> <s_m_Source_File>
dock_pv.maegz

> <i_m_Source_File_Index>
215

> <chembl_id>
CHEMBL1096034

> <chembl_pref_name>
None

> <i_lp_mmshare_version>
53161

> <i_f3d_flags>
0

> <r_lp_tautomer_probability>
1

> <s_lp_Force_Field>
OPLS_2005

> <r_lp_Energy>
24.423141

> <b_lp_Chiralities_Consistent>
1

> <s_lp_Variant>
CHEMBL3192_lig271-1

> <s_i_glide_gridfile>
glide-grid_3f07

> <i_i_glide_lignum>
284

> <i_i_glide_rotatable_bonds>
8

> <r_i_docking_score>
-7.54183678279378

> <r_i_glide_ligand_efficiency>
-0.279327288251621

> <r_i_glide_ligand_efficiency_sa>
-0.837981863834247

> <r_i_glide_ligand_efficiency_ln>
-1.75561526613757

> <r_i_glide_gscore>
-7.54183678279378

> <r_i_glide_lipo>
-1.64774936867719

> <r_i_glide_hbond>
-0.304414409745205

> <r_i_glide_metal>
-2.3

> <r_i_glide_rewards>
-1.18396689414448

> <r_i_glide_evdw>
-37.9604568481445

> <r_i_glide_ecoul>
-7.17216968536377

> <r_i_glide_erotb>
1.02829866449053

> <r_i_glide_esite>
-0.160156479505637

> <r_i_glide_emodel>
-65.5621182941505

> <r_i_glide_energy>
-45.1326265335083

> <r_i_glide_einternal>
5.34847545623779

> <i_i_glide_confnum>
92

> <i_i_glide_posenum>
344

> <r_i_glide_eff_state_penalty>
0

> <s_user_duplicate_titles>
CHEMBL3192_lig271,625974

> <s_m_subgroup_title>
dock_pv

> <s_m_subgroupid>
dock_pv

> <b_m_subgroup_collapsed>
1

$$$$
CHEMBL3192_lig234
                    3D
 Schrodinger Suite 2021-1.
 52 55  0  0  1  0            999 V2000
  -23.5605   31.5960  -46.3238 C   0  0  0  0  0  0
  -23.3216   32.9020  -45.8965 C   0  0  0  0  0  0
  -23.7179   33.3518  -44.6341 C   0  0  0  0  0  0
  -24.2130   30.6768  -45.5021 C   0  0  0  0  0  0
  -25.2567   30.3815  -43.2592 N   0  0  0  0  0  0
  -24.6150   31.0955  -44.2283 C   0  0  0  0  0  0
  -24.3620   32.4218  -43.8058 C   0  0  0  0  0  0
  -24.8988   32.4825  -42.5305 N   0  0  0  0  0  0
  -25.3503   31.1969  -42.2355 C   0  0  0  0  0  0
  -25.8624   30.7155  -40.9109 C   0  0  0  0  0  0
  -25.2154   31.0833  -39.7262 C   0  0  0  0  0  0
  -25.6384   30.5765  -38.5032 C   0  0  0  0  0  0
  -26.7002   29.6795  -38.4524 C   0  0  0  0  0  0
  -27.3617   29.2829  -39.6147 C   0  0  0  0  0  0
  -26.9335   29.8106  -40.8405 C   0  0  0  0  0  0
  -28.4739   28.3132  -39.5674 C   0  0  0  0  0  0
  -28.6813   27.3743  -38.6105 C   0  0  0  0  0  0
  -29.8130   26.4740  -38.6383 C   0  0  0  0  0  0
  -29.9503   25.6917  -37.5567 N   0  0  0  0  0  0
  -30.6130   26.4690  -39.5810 O   0  0  0  0  0  0
  -31.0111   24.7695  -37.5269 O   0  0  0  0  0  0
  -24.9702   33.6900  -41.6955 C   0  0  0  0  0  0
  -26.4230   34.0696  -41.3162 C   0  0  0  0  0  0
  -27.1452   34.7897  -42.3738 N   0  0  0  0  0  0
  -28.4888   35.1724  -41.9726 C   0  0  0  0  0  0
  -29.1721   35.6229  -43.2609 C   0  0  0  0  0  0
  -28.4974   34.7854  -44.3485 C   0  0  0  0  0  0
  -27.3555   34.0661  -43.6229 C   0  0  0  0  0  0
  -23.2332   31.2946  -47.3086 H   0  0  0  0  0  0
  -22.8149   33.5854  -46.5631 H   0  0  0  0  0  0
  -23.5274   34.3678  -44.3215 H   0  0  0  0  0  0
  -24.4013   29.6690  -45.8334 H   0  0  0  0  0  0
  -24.3554   31.7343  -39.7342 H   0  0  0  0  0  0
  -25.1291   30.8690  -37.5967 H   0  0  0  0  0  0
  -27.0130   29.2922  -37.5001 H   0  0  0  0  0  0
  -27.4239   29.5084  -41.7539 H   0  0  0  0  0  0
  -29.1779   28.4132  -40.3810 H   0  0  0  0  0  0
  -27.9965   27.2690  -37.7815 H   0  0  0  0  0  0
  -29.3522   25.6393  -36.7435 H   0  0  0  0  0  0
  -30.5682   23.9114  -37.5810 H   0  0  0  0  0  0
  -24.3506   33.5530  -40.8118 H   0  0  0  0  0  0
  -24.5047   34.5224  -42.2238 H   0  0  0  0  0  0
  -26.9842   33.1913  -40.9950 H   0  0  0  0  0  0
  -26.3743   34.7261  -40.4452 H   0  0  0  0  0  0
  -29.0125   34.3497  -41.4863 H   0  0  0  0  0  0
  -28.4233   35.9664  -41.2268 H   0  0  0  0  0  0
  -30.2489   35.4555  -43.2230 H   0  0  0  0  0  0
  -29.0190   36.6914  -43.4208 H   0  0  0  0  0  0
  -28.1167   35.4213  -45.1489 H   0  0  0  0  0  0
  -29.1902   34.0690  -44.7911 H   0  0  0  0  0  0
  -26.4407   34.1023  -44.2132 H   0  0  0  0  0  0
  -27.5633   33.0071  -43.4649 H   0  0  0  0  0  0
  1  2  2  0  0  0
  1  4  1  0  0  0
  1 29  1  0  0  0
  2  3  1  0  0  0
  2 30  1  0  0  0
  3  7  2  0  0  0
  3 31  1  0  0  0
  4  6  2  0  0  0
  4 32  1  0  0  0
  5  6  1  0  0  0
  5  9  2  0  0  0
  6  7  1  0  0  0
  7  8  1  0  0  0
  8  9  1  0  0  0
  8 22  1  0  0  0
  9 10  1  0  0  0
 10 15  1  0  0  0
 10 11  2  0  0  0
 11 12  1  0  0  0
 11 33  1  0  0  0
 12 13  2  0  0  0
 12 34  1  0  0  0
 13 14  1  0  0  0
 13 35  1  0  0  0
 14 15  2  0  0  0
 14 16  1  0  0  0
 15 36  1  0  0  0
 16 17  2  0  0  0
 16 37  1  0  0  0
 17 18  1  0  0  0
 17 38  1  0  0  0
 18 19  1  0  0  0
 18 20  2  0  0  0
 19 21  1  0  0  0
 19 39  1  0  0  0
 21 40  1  0  0  0
 22 23  1  0  0  0
 22 41  1  0  0  0
 22 42  1  0  0  0
 23 24  1  0  0  0
 23 43  1  0  0  0
 23 44  1  0  0  0
 24 25  1  0  0  0
 24 28  1  0  0  0
 25 26  1  0  0  0
 25 45  1  0  0  0
 25 46  1  0  0  0
 26 27  1  0  0  0
 26 47  1  0  0  0
 26 48  1  0  0  0
 27 28  1  0  0  0
 27 49  1  0  0  0
 27 50  1  0  0  0
 28 51  1  0  0  0
 28 52  1  0  0  0
M  END
> <s_m_entry_id>
52997

> <s_m_entry_name>
dock_pv.216

> <s_m_Source_Path>
/home/csk/Desktop/cluster/DUD-E-result/hdac8

> <s_m_Source_File>
dock_pv.maegz

> <i_m_Source_File_Index>
216

> <chembl_id>
CHEMBL1099058

> <chembl_pref_name>
None

> <i_lp_mmshare_version>
53161

> <i_f3d_flags>
0

> <r_lp_tautomer_probability>
1

> <s_lp_Force_Field>
OPLS_2005

> <r_lp_Energy>
48.315013

> <b_lp_Chiralities_Consistent>
1

> <s_lp_Variant>
CHEMBL3192_lig234-1

> <s_i_glide_gridfile>
glide-grid_3f07

> <i_i_glide_lignum>
244

> <i_i_glide_rotatable_bonds>
8

> <r_i_docking_score>
-7.53791388673331

> <r_i_glide_ligand_efficiency>
-0.269211210240475

> <r_i_glide_ligand_efficiency_sa>
-0.81748379121352

> <r_i_glide_ligand_efficiency_ln>
-1.73997184782684

> <r_i_glide_gscore>
-7.53791388673331

> <r_i_glide_lipo>
-1.20862404186614

> <r_i_glide_hbond>
-0.307323613937936

> <r_i_glide_metal>
-2.3

> <r_i_glide_rewards>
-1.00895892059266

> <r_i_glide_evdw>
-28.382625579834

> <r_i_glide_ecoul>
-14.016580581665

> <r_i_glide_erotb>
0.95617254608463

> <r_i_glide_esite>
-0.147561490179748

> <r_i_glide_emodel>
-68.5216546838186

> <r_i_glide_energy>
-42.399206161499

> <r_i_glide_einternal>
2.18503880500793

> <i_i_glide_confnum>
10

> <i_i_glide_posenum>
217

> <r_i_glide_eff_state_penalty>
0

> <s_user_duplicate_titles>
CHEMBL3192_lig234,626574

> <s_m_subgroup_title>
dock_pv

> <s_m_subgroupid>
dock_pv

> <b_m_subgroup_collapsed>
1

$$$$
CHEMBL3192_lig477
                    3D
 Schrodinger Suite 2021-1.
 42 43  0  0  1  0            999 V2000
  -28.0986   33.1702  -47.1187 C   0  0  0  0  0  0
  -27.4128   31.9662  -47.3254 C   0  0  0  0  0  0
  -26.6604   31.3938  -46.2933 C   0  0  0  0  0  0
  -28.0288   33.8145  -45.8796 C   0  0  0  0  0  0
  -27.2738   33.2286  -44.8622 C   0  0  0  0  0  0
  -26.6133   32.0448  -45.0602 C   0  0  0  0  0  0
  -25.9338   31.6794  -43.7901 C   0  0  0  0  0  0
  -26.2264   32.6947  -42.9322 N   0  0  0  0  0  0
  -27.0125   33.6666  -43.4680 C   0  0  0  0  0  0
  -27.4303   34.6842  -42.9139 O   0  0  0  0  0  0
  -25.2550   30.6757  -43.5635 O   0  0  0  0  0  0
  -25.7056   32.7665  -41.5570 C   0  0  0  0  0  0
  -26.7736   32.6504  -40.4465 C   0  0  0  0  0  0
  -27.4651   31.2757  -40.3325 C   0  0  0  0  0  0
  -26.5117   30.1322  -39.9121 C   0  0  0  0  0  0
  -27.0961   29.1926  -38.8417 C   0  0  0  0  0  0
  -28.2753   28.3166  -39.3096 C   0  0  0  0  0  0
  -28.9109   27.5615  -38.1226 C   0  0  0  0  0  0
  -29.9242   26.4689  -38.4768 C   0  0  0  0  0  0
  -30.1845   25.5562  -37.5259 N   0  0  0  0  0  0
  -30.4844   26.4696  -39.5803 O   0  0  0  0  0  0
  -31.0131   24.4704  -37.8478 O   0  0  0  0  0  0
  -28.6850   33.6013  -47.9174 H   0  0  0  0  0  0
  -27.4726   31.4741  -48.2852 H   0  0  0  0  0  0
  -26.1321   30.4691  -46.4581 H   0  0  0  0  0  0
  -28.5518   34.7459  -45.7250 H   0  0  0  0  0  0
  -25.1500   33.6986  -41.4373 H   0  0  0  0  0  0
  -24.9659   31.9769  -41.4099 H   0  0  0  0  0  0
  -27.5187   33.4378  -40.5649 H   0  0  0  0  0  0
  -26.2888   32.8658  -39.4940 H   0  0  0  0  0  0
  -27.9573   31.0186  -41.2722 H   0  0  0  0  0  0
  -28.2695   31.3729  -39.6025 H   0  0  0  0  0  0
  -25.5892   30.5502  -39.5056 H   0  0  0  0  0  0
  -26.2050   29.5604  -40.7893 H   0  0  0  0  0  0
  -27.4000   29.7888  -37.9811 H   0  0  0  0  0  0
  -26.2999   28.5413  -38.4756 H   0  0  0  0  0  0
  -27.8959   27.6070  -40.0444 H   0  0  0  0  0  0
  -29.0272   28.9278  -39.8105 H   0  0  0  0  0  0
  -29.3972   28.2664  -37.4466 H   0  0  0  0  0  0
  -28.0988   27.0880  -37.5814 H   0  0  0  0  0  0
  -29.7670   25.4832  -36.6091 H   0  0  0  0  0  0
  -30.4043   23.7173  -37.8927 H   0  0  0  0  0  0
  1  2  2  0  0  0
  1  4  1  0  0  0
  1 23  1  0  0  0
  2  3  1  0  0  0
  2 24  1  0  0  0
  3  6  2  0  0  0
  3 25  1  0  0  0
  4  5  2  0  0  0
  4 26  1  0  0  0
  5  6  1  0  0  0
  5  9  1  0  0  0
  6  7  1  0  0  0
  7  8  1  0  0  0
  7 11  2  0  0  0
  8  9  1  0  0  0
  8 12  1  0  0  0
  9 10  2  0  0  0
 12 13  1  0  0  0
 12 27  1  0  0  0
 12 28  1  0  0  0
 13 14  1  0  0  0
 13 29  1  0  0  0
 13 30  1  0  0  0
 14 15  1  0  0  0
 14 31  1  0  0  0
 14 32  1  0  0  0
 15 16  1  0  0  0
 15 33  1  0  0  0
 15 34  1  0  0  0
 16 17  1  0  0  0
 16 35  1  0  0  0
 16 36  1  0  0  0
 17 18  1  0  0  0
 17 37  1  0  0  0
 17 38  1  0  0  0
 18 19  1  0  0  0
 18 39  1  0  0  0
 18 40  1  0  0  0
 19 20  1  0  0  0
 19 21  2  0  0  0
 20 22  1  0  0  0
 20 41  1  0  0  0
 22 42  1  0  0  0
M  END
> <s_m_entry_id>
52998

> <s_m_entry_name>
dock_pv.217

> <s_m_Source_Path>
/home/csk/Desktop/cluster/DUD-E-result/hdac8

> <s_m_Source_File>
dock_pv.maegz

> <i_m_Source_File_Index>
217

> <chembl_id>
CHEMBL2235253

> <chembl_pref_name>
None

> <i_lp_mmshare_version>
53161

> <i_f3d_flags>
0

> <r_lp_tautomer_probability>
1

> <s_lp_Force_Field>
OPLS_2005

> <r_lp_Energy>
36.39546

> <b_lp_Chiralities_Consistent>
1

> <s_lp_Variant>
CHEMBL3192_lig477-1

> <s_i_glide_gridfile>
glide-grid_3f07

> <i_i_glide_lignum>
498

> <i_i_glide_rotatable_bonds>
10

> <r_i_docking_score>
-7.53055139720374

> <r_i_glide_ligand_efficiency>
-0.342297790781988

> <r_i_glide_ligand_efficiency_sa>
-0.959131871579341

> <r_i_glide_ligand_efficiency_ln>
-1.84074144501286

> <r_i_glide_gscore>
-7.53055139720374

> <r_i_glide_lipo>
-1.11966124269294

> <r_i_glide_hbond>
-0.304

> <r_i_glide_metal>
-2.3

> <r_i_glide_rewards>
-1.33269964519818

> <r_i_glide_evdw>
-23.3492908477783

> <r_i_glide_ecoul>
-18.4253749847412

> <r_i_glide_erotb>
1.59275078293808

> <r_i_glide_esite>
-0.135670502150595

> <r_i_glide_emodel>
-62.789915514021

> <r_i_glide_energy>
-41.7746658325195

> <r_i_glide_einternal>
6.95346260070801

> <i_i_glide_confnum>
34

> <i_i_glide_posenum>
214

> <r_i_glide_eff_state_penalty>
0

> <s_user_duplicate_titles>
CHEMBL3192_lig477

> <s_m_subgroup_title>
dock_pv

> <s_m_subgroupid>
dock_pv

> <b_m_subgroup_collapsed>
1

$$$$
CHEMBL3192_lig546
                    3D
 Schrodinger Suite 2021-1.
 42 44  0  0  1  0            999 V2000
  -29.0330   28.1223  -39.2470 C   0  0  0  0  0  0
  -29.0996   27.1314  -38.3265 C   0  0  0  0  0  0
  -30.1846   26.1762  -38.2678 C   0  0  0  0  0  0
  -31.0117   26.0690  -39.1810 O   0  0  0  0  0  0
  -30.2130   25.4415  -37.1447 N   0  0  0  0  0  0
  -31.2163   24.4690  -37.0121 O   0  0  0  0  0  0
  -26.7493   29.0185  -38.7289 C   0  0  0  0  0  0
  -27.9731   29.1363  -39.3927 C   0  0  0  0  0  0
  -28.1823   30.2396  -40.2298 C   0  0  0  0  0  0
  -25.7117   29.9200  -38.9578 C   0  0  0  0  0  0
  -25.9120   30.9684  -39.8514 C   0  0  0  0  0  0
  -27.1546   31.1546  -40.4541 C   0  0  0  0  0  0
  -27.4129   32.2631  -41.2682 N   0  0  0  0  0  0
  -26.4520   33.0597  -41.5654 C   0  0  0  0  0  0
  -25.1576   32.8728  -41.1268 N   0  0  0  0  0  0
  -24.7682   31.8706  -40.2616 C   0  0  0  0  0  0
  -23.6016   31.6687  -39.9178 O   0  0  0  0  0  0
  -24.0899   33.7568  -41.6437 C   0  0  0  0  0  0
  -23.1697   33.1229  -42.7182 C   0  0  0  0  0  0
  -23.9196   32.4157  -43.8411 C   0  0  0  0  0  0
  -24.1255   31.0347  -43.7781 C   0  0  0  0  0  0
  -24.8453   30.3915  -44.7810 C   0  0  0  0  0  0
  -25.3555   31.1335  -45.8444 C   0  0  0  0  0  0
  -25.1477   32.5095  -45.9174 C   0  0  0  0  0  0
  -24.4273   33.1523  -44.9139 C   0  0  0  0  0  0
  -29.8130   28.2076  -39.9852 H   0  0  0  0  0  0
  -28.3304   27.0277  -37.5810 H   0  0  0  0  0  0
  -29.5693   25.4651  -36.3652 H   0  0  0  0  0  0
  -30.7537   23.6389  -37.1809 H   0  0  0  0  0  0
  -26.5749   28.1931  -38.0571 H   0  0  0  0  0  0
  -29.1269   30.3815  -40.7321 H   0  0  0  0  0  0
  -24.7541   29.7679  -38.4762 H   0  0  0  0  0  0
  -26.6425   33.9185  -42.2043 H   0  0  0  0  0  0
  -24.5164   34.6686  -42.0664 H   0  0  0  0  0  0
  -23.4818   34.1349  -40.8181 H   0  0  0  0  0  0
  -22.5149   33.8881  -43.1373 H   0  0  0  0  0  0
  -22.4760   32.4257  -42.2453 H   0  0  0  0  0  0
  -23.7417   30.4690  -42.9423 H   0  0  0  0  0  0
  -25.0127   29.3254  -44.7331 H   0  0  0  0  0  0
  -25.9201   30.6374  -46.6196 H   0  0  0  0  0  0
  -25.5472   33.0762  -46.7458 H   0  0  0  0  0  0
  -24.2734   34.2205  -44.9649 H   0  0  0  0  0  0
  1  2  2  0  0  0
  1  8  1  0  0  0
  1 26  1  0  0  0
  2  3  1  0  0  0
  2 27  1  0  0  0
  3  4  2  0  0  0
  3  5  1  0  0  0
  5  6  1  0  0  0
  5 28  1  0  0  0
  6 29  1  0  0  0
  7  8  2  0  0  0
  7 10  1  0  0  0
  7 30  1  0  0  0
  8  9  1  0  0  0
  9 12  2  0  0  0
  9 31  1  0  0  0
 10 11  2  0  0  0
 10 32  1  0  0  0
 11 12  1  0  0  0
 11 16  1  0  0  0
 12 13  1  0  0  0
 13 14  2  0  0  0
 14 15  1  0  0  0
 14 33  1  0  0  0
 15 16  1  0  0  0
 15 18  1  0  0  0
 16 17  2  0  0  0
 18 19  1  0  0  0
 18 34  1  0  0  0
 18 35  1  0  0  0
 19 20  1  0  0  0
 19 36  1  0  0  0
 19 37  1  0  0  0
 20 21  2  0  0  0
 20 25  1  0  0  0
 21 22  1  0  0  0
 21 38  1  0  0  0
 22 23  2  0  0  0
 22 39  1  0  0  0
 23 24  1  0  0  0
 23 40  1  0  0  0
 24 25  2  0  0  0
 24 41  1  0  0  0
 25 42  1  0  0  0
M  END
> <s_m_entry_id>
52999

> <s_m_entry_name>
dock_pv.218

> <s_m_Source_Path>
/home/csk/Desktop/cluster/DUD-E-result/hdac8

> <s_m_Source_File>
dock_pv.maegz

> <i_m_Source_File_Index>
218

> <chembl_id>
CHEMBL2425960

> <chembl_pref_name>
None

> <i_lp_mmshare_version>
53161

> <i_f3d_flags>
0

> <r_lp_tautomer_probability>
1

> <s_lp_Force_Field>
OPLS_2005

> <r_lp_Energy>
30.067735

> <b_lp_Chiralities_Consistent>
1

> <s_lp_Variant>
CHEMBL3192_lig546-1

> <s_i_glide_gridfile>
glide-grid_3f07

> <i_i_glide_lignum>
567

> <i_i_glide_rotatable_bonds>
7

> <r_i_docking_score>
-7.52927180998099

> <r_i_glide_ligand_efficiency>
-0.30117087239924

> <r_i_glide_ligand_efficiency_sa>
-0.880628972183542

> <r_i_glide_ligand_efficiency_ln>
-1.78466305303409

> <r_i_glide_gscore>
-7.52927180998099

> <r_i_glide_lipo>
-1.11362969617508

> <r_i_glide_hbond>
-0.237602508828277

> <r_i_glide_metal>
-2.3

> <r_i_glide_rewards>
-1.34182783738799

> <r_i_glide_evdw>
-34.0369911193848

> <r_i_glide_ecoul>
-11.2100315093994

> <r_i_glide_erotb>
1.00685142704766

> <r_i_glide_esite>
-0.159708912258146

> <r_i_glide_emodel>
-68.7123151530766

> <r_i_glide_energy>
-45.2470226287842

> <r_i_glide_einternal>
1.80072236061096

> <i_i_glide_confnum>
19

> <i_i_glide_posenum>
391

> <r_i_glide_eff_state_penalty>
0

> <s_user_duplicate_titles>
CHEMBL3192_lig546

> <s_m_subgroup_title>
dock_pv

> <s_m_subgroupid>
dock_pv

> <b_m_subgroup_collapsed>
1

$$$$
CHEMBL3192_lig789
                    3D
 Schrodinger Suite 2021-1.
 43 45  0  0  1  0            999 V2000
  -31.0712   24.6354  -36.9180 O   0  0  0  0  0  0
  -30.1306   25.6690  -37.0584 N   0  0  0  0  0  0
  -30.0531   26.3008  -38.2396 C   0  0  0  0  0  0
  -30.8180   26.0690  -39.1810 O   0  0  0  0  0  0
  -29.0130   27.3017  -38.3322 C   0  0  0  0  0  0
  -29.0130   28.2501  -39.2983 C   0  0  0  0  0  0
  -28.0271   29.3272  -39.5029 C   0  0  0  0  0  0
  -26.7328   29.2690  -38.9659 C   0  0  0  0  0  0
  -25.8132   30.2917  -39.2040 C   0  0  0  0  0  0
  -26.2118   31.3956  -39.9530 C   0  0  0  0  0  0
  -25.5708   32.5451  -40.3810 N   0  0  0  0  0  0
  -24.1714   32.7033  -40.7824 C   0  0  0  0  0  0
  -23.8948   32.8964  -42.2948 C   0  0  0  0  0  0
  -24.5498   31.8976  -43.2459 C   0  0  0  0  0  0
  -23.9688   30.7305  -43.6092 C   0  0  0  0  0  0
  -24.6372   29.7880  -44.6070 C   0  0  0  0  0  0
  -26.1133   30.1968  -44.9216 C   0  0  0  0  0  0
  -26.4388   31.6392  -44.5202 C   0  0  0  0  0  0
  -25.7108   32.3771  -43.7778 N   0  0  0  0  0  0
  -26.5142   33.5668  -40.8180 C   0  0  0  0  0  0
  -27.7131   32.7567  -41.0149 N   0  0  0  0  0  0
  -27.5089   31.5124  -40.4179 C   0  0  0  0  0  0
  -28.4094   30.4618  -40.2364 C   0  0  0  0  0  0
  -30.5467   23.8328  -37.0259 H   0  0  0  0  0  0
  -29.5437   25.7959  -36.2443 H   0  0  0  0  0  0
  -28.2389   27.2690  -37.5810 H   0  0  0  0  0  0
  -29.8080   28.2483  -40.0300 H   0  0  0  0  0  0
  -26.4190   28.4194  -38.3810 H   0  0  0  0  0  0
  -24.8090   30.2183  -38.8128 H   0  0  0  0  0  0
  -23.7574   33.5466  -40.2264 H   0  0  0  0  0  0
  -23.6218   31.8282  -40.4331 H   0  0  0  0  0  0
  -24.1453   33.9163  -42.5923 H   0  0  0  0  0  0
  -22.8157   32.8360  -42.4404 H   0  0  0  0  0  0
  -23.0130   30.4690  -43.1810 H   0  0  0  0  0  0
  -24.0479   29.7998  -45.5243 H   0  0  0  0  0  0
  -24.6130   28.7605  -44.2430 H   0  0  0  0  0  0
  -26.3247   30.0690  -45.9810 H   0  0  0  0  0  0
  -26.7974   29.5412  -44.3841 H   0  0  0  0  0  0
  -27.3657   32.0690  -44.8891 H   0  0  0  0  0  0
  -26.2266   34.0647  -41.7432 H   0  0  0  0  0  0
  -26.6492   34.3202  -40.0400 H   0  0  0  0  0  0
  -28.1560   32.9602  -41.8983 H   0  0  0  0  0  0
  -29.4135   30.5401  -40.6271 H   0  0  0  0  0  0
  1  2  1  0  0  0
  1 24  1  0  0  0
  2  3  1  0  0  0
  2 25  1  0  0  0
  3  4  2  0  0  0
  3  5  1  0  0  0
  5  6  2  0  0  0
  5 26  1  0  0  0
  6  7  1  0  0  0
  6 27  1  0  0  0
  7  8  2  0  0  0
  7 23  1  0  0  0
  8  9  1  0  0  0
  8 28  1  0  0  0
  9 10  2  0  0  0
  9 29  1  0  0  0
 10 11  1  0  0  0
 10 22  1  0  0  0
 11 12  1  0  0  0
 11 20  1  0  0  0
 12 13  1  0  0  0
 12 30  1  0  0  0
 12 31  1  0  0  0
 13 14  1  0  0  0
 13 32  1  0  0  0
 13 33  1  0  0  0
 14 15  2  0  0  0
 14 19  1  0  0  0
 15 16  1  0  0  0
 15 34  1  0  0  0
 16 17  1  0  0  0
 16 35  1  0  0  0
 16 36  1  0  0  0
 17 18  1  0  0  0
 17 37  1  0  0  0
 17 38  1  0  0  0
 18 19  2  0  0  0
 18 39  1  0  0  0
 20 21  1  0  0  0
 20 40  1  0  0  0
 20 41  1  0  0  0
 21 22  1  0  0  0
 21 42  1  0  0  0
 22 23  2  0  0  0
 23 43  1  0  0  0
M  END
> <s_m_entry_id>
53000

> <s_m_entry_name>
dock_pv.219

> <s_m_Source_Path>
/home/csk/Desktop/cluster/DUD-E-result/hdac8

> <s_m_Source_File>
dock_pv.maegz

> <i_m_Source_File_Index>
219

> <chembl_id>
CHEMBL3648319

> <chembl_pref_name>
None

> <i_lp_mmshare_version>
53161

> <i_f3d_flags>
0

> <r_lp_tautomer_probability>
1

> <s_lp_Force_Field>
OPLS_2005

> <r_lp_Energy>
37.160483

> <b_lp_Chiralities_Consistent>
1

> <s_lp_Variant>
CHEMBL3192_lig789-1

> <s_i_glide_gridfile>
glide-grid_3f07

> <i_i_glide_lignum>
840

> <i_i_glide_rotatable_bonds>
7

> <r_i_docking_score>
-7.52901976294694

> <r_i_glide_ligand_efficiency>
-0.327348685345519

> <r_i_glide_ligand_efficiency_sa>
-0.93093611617896

> <r_i_glide_ligand_efficiency_ln>
-1.82058524805731

> <r_i_glide_gscore>
-7.52901976294694

> <r_i_glide_lipo>
-1.18291258527517

> <r_i_glide_hbond>
-0.243114471421311

> <r_i_glide_metal>
-2.3

> <r_i_glide_rewards>
-1.4958409450084

> <r_i_glide_evdw>
-32.0167198181152

> <r_i_glide_ecoul>
-10.4028930664062

> <r_i_glide_erotb>
1.14122163251021

> <r_i_glide_esite>
-0.287103442885558

> <r_i_glide_emodel>
-64.9624875976353

> <r_i_glide_energy>
-42.4196128845215

> <r_i_glide_einternal>
4.94493246078491

> <i_i_glide_confnum>
22

> <i_i_glide_posenum>
40

> <r_i_glide_eff_state_penalty>
0

> <s_user_duplicate_titles>
CHEMBL3192_lig789

> <s_m_subgroup_title>
dock_pv

> <s_m_subgroupid>
dock_pv

> <b_m_subgroup_collapsed>
1

$$$$
CHEMBL3192_lig630
                    3D
 Schrodinger Suite 2021-1.
 60 62  0  0  1  0            999 V2000
  -26.0652   31.5970  -40.5750 C   0  0  2  0  0  0
  -25.0428   32.4307  -41.4059 C   0  0  0  0  0  0
  -25.3367   32.5593  -42.8396 N   0  0  0  0  0  0
  -24.8878   31.7205  -43.7957 C   0  0  0  0  0  0
  -26.6721   32.4681  -49.1722 N   0  0  0  0  0  0
  -27.8140   33.0060  -49.6278 C   0  0  0  0  0  0
  -28.7301   33.5413  -48.5024 C   0  0  0  0  0  0
  -27.9941   34.0436  -47.2084 C   0  0  0  0  0  0
  -26.8773   33.0477  -46.8231 C   0  0  0  0  0  0
  -26.4207   32.8468  -45.5091 C   0  0  0  0  0  0
  -25.3701   31.9604  -45.2124 C   0  0  0  0  0  0
  -24.7679   31.2701  -46.2719 C   0  0  0  0  0  0
  -25.2046   31.4496  -47.5803 C   0  0  0  0  0  0
  -26.2518   32.3263  -47.8519 C   0  0  0  0  0  0
  -28.1032   33.0282  -50.8210 O   0  0  0  0  0  0
  -29.0620   34.1266  -46.0940 C   0  0  0  0  0  0
  -27.3431   35.4172  -47.4910 C   0  0  0  0  0  0
  -24.1288   30.7815  -43.5473 O   0  0  0  0  0  0
  -25.4115   30.8779  -39.3539 C   0  0  0  0  0  0
  -26.2900   29.8184  -38.6529 C   0  0  0  0  0  0
  -26.9655   28.8788  -39.6705 C   0  0  2  0  0  0
  -27.9043   29.7562  -40.5200 C   0  0  0  0  0  0
  -27.1024   30.7494  -41.3749 C   0  0  0  0  0  0
  -27.6387   27.6458  -39.0162 C   0  0  0  0  0  0
  -29.0382   27.8543  -38.4281 C   0  0  0  0  0  0
  -29.8136   26.5475  -38.2200 C   0  0  0  0  0  0
  -29.8640   26.0439  -36.9794 N   0  0  0  0  0  0
  -30.4223   26.0694  -39.1808 O   0  0  0  0  0  0
  -30.6356   24.8901  -36.7684 O   0  0  0  0  0  0
  -26.7247   32.3129  -40.0769 H   0  0  0  0  0  0
  -25.0040   33.4418  -40.9923 H   0  0  0  0  0  0
  -24.0266   32.0551  -41.2570 H   0  0  0  0  0  0
  -25.8636   33.3715  -43.1212 H   0  0  0  0  0  0
  -26.1077   32.0661  -49.9036 H   0  0  0  0  0  0
  -29.3674   34.3197  -48.9227 H   0  0  0  0  0  0
  -29.3905   32.7091  -48.2621 H   0  0  0  0  0  0
  -26.8952   33.3978  -44.7125 H   0  0  0  0  0  0
  -23.9565   30.5804  -46.0887 H   0  0  0  0  0  0
  -24.7275   30.8982  -48.3777 H   0  0  0  0  0  0
  -29.9310   34.7042  -46.4127 H   0  0  0  0  0  0
  -29.4129   33.1340  -45.8165 H   0  0  0  0  0  0
  -28.6810   34.6122  -45.1961 H   0  0  0  0  0  0
  -28.0891   36.1577  -47.7807 H   0  0  0  0  0  0
  -26.8348   35.8046  -46.6070 H   0  0  0  0  0  0
  -26.6046   35.3663  -48.2919 H   0  0  0  0  0  0
  -24.5481   30.3289  -39.7350 H   0  0  0  0  0  0
  -24.9992   31.6000  -38.6471 H   0  0  0  0  0  0
  -27.0208   30.2755  -37.9884 H   0  0  0  0  0  0
  -25.6496   29.2413  -37.9847 H   0  0  0  0  0  0
  -26.2134   28.4762  -40.3416 H   0  0  0  0  0  0
  -28.4832   29.1215  -41.1862 H   0  0  0  0  0  0
  -28.6517   30.2621  -39.9086 H   0  0  0  0  0  0
  -26.5506   30.1392  -42.0929 H   0  0  0  0  0  0
  -27.7539   31.3833  -41.9790 H   0  0  0  0  0  0
  -27.0131   27.2701  -38.2116 H   0  0  0  0  0  0
  -27.6632   26.8513  -39.7644 H   0  0  0  0  0  0
  -29.6132   28.4215  -39.1509 H   0  0  0  0  0  0
  -29.0118   28.4628  -37.5266 H   0  0  0  0  0  0
  -29.4149   26.3958  -36.1419 H   0  0  0  0  0  0
  -29.9962   24.1715  -36.8173 H   0  0  0  0  0  0
  1  2  1  0  0  0
  1 19  1  0  0  0
  1 23  1  0  0  0
  1 30  1  0  0  0
  2  3  1  0  0  0
  2 31  1  0  0  0
  2 32  1  0  0  0
  3  4  1  0  0  0
  3 33  1  0  0  0
  4 11  1  0  0  0
  4 18  2  0  0  0
  5  6  1  0  0  0
  5 14  1  0  0  0
  5 34  1  0  0  0
  6  7  1  0  0  0
  6 15  2  0  0  0
  7  8  1  0  0  0
  7 35  1  0  0  0
  7 36  1  0  0  0
  8  9  1  0  0  0
  8 16  1  0  0  0
  8 17  1  0  0  0
  9 10  1  0  0  0
  9 14  2  0  0  0
 10 11  2  0  0  0
 10 37  1  0  0  0
 11 12  1  0  0  0
 12 13  2  0  0  0
 12 38  1  0  0  0
 13 14  1  0  0  0
 13 39  1  0  0  0
 16 40  1  0  0  0
 16 41  1  0  0  0
 16 42  1  0  0  0
 17 43  1  0  0  0
 17 44  1  0  0  0
 17 45  1  0  0  0
 19 20  1  0  0  0
 19 46  1  0  0  0
 19 47  1  0  0  0
 20 21  1  0  0  0
 20 48  1  0  0  0
 20 49  1  0  0  0
 21 22  1  0  0  0
 21 24  1  0  0  0
 21 50  1  0  0  0
 22 23  1  0  0  0
 22 51  1  0  0  0
 22 52  1  0  0  0
 23 53  1  0  0  0
 23 54  1  0  0  0
 24 25  1  0  0  0
 24 55  1  0  0  0
 24 56  1  0  0  0
 25 26  1  0  0  0
 25 57  1  0  0  0
 25 58  1  0  0  0
 26 27  1  0  0  0
 26 28  2  0  0  0
 27 29  1  0  0  0
 27 59  1  0  0  0
 29 60  1  0  0  0
M  END
> <s_m_entry_id>
53001

> <s_m_entry_name>
dock_pv.220

> <s_m_Source_Path>
/home/csk/Desktop/cluster/DUD-E-result/hdac8

> <s_m_Source_File>
dock_pv.maegz

> <i_m_Source_File_Index>
220

> <chembl_id>
CHEMBL3309298

> <chembl_pref_name>
None

> <i_lp_mmshare_version>
53161

> <i_f3d_flags>
0

> <r_lp_tautomer_probability>
1

> <s_lp_Force_Field>
OPLS_2005

> <r_lp_Energy>
35.788209

> <b_lp_Chiralities_Consistent>
1

> <s_lp_Variant>
CHEMBL3192_lig630-1

> <s_i_glide_gridfile>
glide-grid_3f07

> <i_i_glide_lignum>
656

> <i_i_glide_rotatable_bonds>
9

> <r_i_docking_score>
-7.52449659854612

> <r_i_glide_ligand_efficiency>
-0.259465399949866

> <r_i_glide_ligand_efficiency_sa>
-0.797159913054524

> <r_i_glide_ligand_efficiency_ln>
-1.72291891629641

> <r_i_glide_gscore>
-7.52449659854612

> <r_i_glide_lipo>
-1.35318427448709

> <r_i_glide_hbond>
-0.393839645069508

> <r_i_glide_metal>
-2.3

> <r_i_glide_rewards>
-0.879171258216359

> <r_i_glide_evdw>
-31.5135250091553

> <r_i_glide_ecoul>
-12.6324663162231

> <r_i_glide_erotb>
0.973421792104856

> <r_i_glide_esite>
-0.101177014986786

> <r_i_glide_emodel>
-62.0420084965985

> <r_i_glide_energy>
-44.1459913253784

> <r_i_glide_einternal>
10.2230339050293

> <i_i_glide_confnum>
109

> <i_i_glide_posenum>
8

> <r_i_glide_eff_state_penalty>
0

> <s_user_duplicate_titles>
CHEMBL3192_lig630

> <s_m_subgroup_title>
dock_pv

> <s_m_subgroupid>
dock_pv

> <b_m_subgroup_collapsed>
1

$$$$
CHEMBL3192_lig1041
                    3D
 Schrodinger Suite 2021-1.
 55 58  0  0  1  0            999 V2000
  -21.9418   30.1198  -50.7288 C   0  0  0  0  0  0
  -21.9625   30.5979  -49.3478 N   0  0  0  0  0  0
  -20.7494   31.2984  -48.9193 C   0  0  0  0  0  0
  -23.2007   30.9209  -48.7287 C   0  0  0  0  0  0
  -24.4162   30.8691  -49.4326 C   0  0  0  0  0  0
  -25.6285   31.1353  -48.7982 C   0  0  0  0  0  0
  -25.6493   31.4502  -47.4423 C   0  0  0  0  0  0
  -24.4607   31.5279  -46.7048 C   0  0  0  0  0  0
  -23.2529   31.2687  -47.3687 C   0  0  0  0  0  0
  -24.4648   31.8855  -45.2549 C   0  0  0  0  0  0
  -23.4359   32.6468  -44.6830 C   0  0  0  0  0  0
  -23.5559   32.9792  -43.3357 C   0  0  0  0  0  0
  -24.6178   32.5913  -42.5902 N   0  0  0  0  0  0
  -25.5706   31.8424  -43.2040 C   0  0  0  0  0  0
  -26.6836   31.3786  -42.4826 N   0  0  0  0  0  0
  -27.3312   32.1413  -41.3991 C   0  0  2  0  0  0
  -26.4160   32.4970  -40.2030 C   0  0  0  0  0  0
  -25.8121   31.2401  -39.5566 C   0  0  0  0  0  0
  -26.8493   30.1331  -39.3478 C   0  0  0  0  0  0
  -26.5422   29.0541  -38.5389 C   0  0  0  0  0  0
  -27.4130   27.9883  -38.3810 C   0  0  0  0  0  0
  -28.6606   27.9766  -38.9832 C   0  0  0  0  0  0
  -28.9757   29.0494  -39.8257 C   0  0  0  0  0  0
  -28.0979   30.1317  -39.9966 C   0  0  0  0  0  0
  -28.5180   31.3251  -40.8281 C   0  0  0  0  0  0
  -29.6499   26.8690  -38.6964 C   0  0  0  0  0  0
  -30.4101   26.4690  -39.5810 O   0  0  0  0  0  0
  -29.7576   26.4667  -37.4195 N   0  0  0  0  0  0
  -30.6128   25.3889  -37.1264 O   0  0  0  0  0  0
  -25.5325   31.4706  -44.5107 N   0  0  0  0  0  0
  -22.1968   30.9336  -51.4074 H   0  0  0  0  0  0
  -20.9595   29.7340  -51.0055 H   0  0  0  0  0  0
  -22.6629   29.3167  -50.8809 H   0  0  0  0  0  0
  -20.5929   31.2691  -47.8429 H   0  0  0  0  0  0
  -19.8589   30.8727  -49.3847 H   0  0  0  0  0  0
  -20.8076   32.3499  -49.2046 H   0  0  0  0  0  0
  -24.4416   30.6314  -50.4840 H   0  0  0  0  0  0
  -26.5540   31.0945  -49.3545 H   0  0  0  0  0  0
  -26.5991   31.6514  -46.9672 H   0  0  0  0  0  0
  -22.3458   31.2884  -46.7868 H   0  0  0  0  0  0
  -22.5898   32.9909  -45.2590 H   0  0  0  0  0  0
  -22.8033   33.5722  -42.8355 H   0  0  0  0  0  0
  -27.3414   30.9316  -43.1038 H   0  0  0  0  0  0
  -27.6819   33.0738  -41.8452 H   0  0  0  0  0  0
  -27.0093   33.0269  -39.4589 H   0  0  0  0  0  0
  -25.6406   33.2188  -40.4510 H   0  0  0  0  0  0
  -25.3341   31.5043  -38.6117 H   0  0  0  0  0  0
  -25.0217   30.8515  -40.2004 H   0  0  0  0  0  0
  -25.5836   29.0250  -38.0425 H   0  0  0  0  0  0
  -27.1081   27.1940  -37.7214 H   0  0  0  0  0  0
  -29.9315   29.0803  -40.3279 H   0  0  0  0  0  0
  -29.1931   30.9433  -41.5810 H   0  0  0  0  0  0
  -29.0954   31.9749  -40.1793 H   0  0  0  0  0  0
  -29.2044   26.7787  -36.6270 H   0  0  0  0  0  0
  -30.0139   24.6477  -36.9831 H   0  0  0  0  0  0
  1  2  1  0  0  0
  1 31  1  0  0  0
  1 32  1  0  0  0
  1 33  1  0  0  0
  2  3  1  0  0  0
  2  4  1  0  0  0
  3 34  1  0  0  0
  3 35  1  0  0  0
  3 36  1  0  0  0
  4  5  2  0  0  0
  4  9  1  0  0  0
  5  6  1  0  0  0
  5 37  1  0  0  0
  6  7  2  0  0  0
  6 38  1  0  0  0
  7  8  1  0  0  0
  7 39  1  0  0  0
  8  9  2  0  0  0
  8 10  1  0  0  0
  9 40  1  0  0  0
 10 11  2  0  0  0
 10 30  1  0  0  0
 11 12  1  0  0  0
 11 41  1  0  0  0
 12 13  2  0  0  0
 12 42  1  0  0  0
 13 14  1  0  0  0
 14 15  1  0  0  0
 14 30  2  0  0  0
 15 16  1  0  0  0
 15 43  1  0  0  0
 16 17  1  0  0  0
 16 25  1  0  0  0
 16 44  1  0  0  0
 17 18  1  0  0  0
 17 45  1  0  0  0
 17 46  1  0  0  0
 18 19  1  0  0  0
 18 47  1  0  0  0
 18 48  1  0  0  0
 19 20  2  0  0  0
 19 24  1  0  0  0
 20 21  1  0  0  0
 20 49  1  0  0  0
 21 22  2  0  0  0
 21 50  1  0  0  0
 22 23  1  0  0  0
 22 26  1  0  0  0
 23 24  2  0  0  0
 23 51  1  0  0  0
 24 25  1  0  0  0
 25 52  1  0  0  0
 25 53  1  0  0  0
 26 27  2  0  0  0
 26 28  1  0  0  0
 28 29  1  0  0  0
 28 54  1  0  0  0
 29 55  1  0  0  0
M  END
> <s_m_entry_id>
53002

> <s_m_entry_name>
dock_pv.221

> <s_m_Source_Path>
/home/csk/Desktop/cluster/DUD-E-result/hdac8

> <s_m_Source_File>
dock_pv.maegz

> <i_m_Source_File_Index>
221

> <chembl_id>
CHEMBL3694290

> <chembl_pref_name>
None

> <i_lp_mmshare_version>
53161

> <i_f3d_flags>
0

> <r_lp_tautomer_probability>
0.999999987636

> <s_lp_Force_Field>
OPLS_2005

> <r_lp_Energy>
34.829268

> <b_lp_Chiralities_Consistent>
1

> <s_lp_Variant>
CHEMBL3192_lig1041-1

> <s_i_glide_gridfile>
glide-grid_3f07

> <i_i_glide_lignum>
1121

> <i_i_glide_rotatable_bonds>
7

> <r_i_docking_score>
-7.52371549107579

> <r_i_glide_ligand_efficiency>
-0.250790516369193

> <r_i_glide_ligand_efficiency_sa>
-0.779264443763832

> <r_i_glide_ligand_efficiency_ln>
-1.70947013701857

> <r_i_glide_gscore>
-7.52371549107579

> <r_i_glide_lipo>
-0.98658334836091

> <r_i_glide_hbond>
-0.608

> <r_i_glide_metal>
-2.3

> <r_i_glide_rewards>
-0.851647973935344

> <r_i_glide_evdw>
-24.54225730896

> <r_i_glide_ecoul>
-13.1166801452637

> <r_i_glide_erotb>
0.603028535818991

> <r_i_glide_esite>
-0.185897817360978

> <r_i_glide_emodel>
-50.1592594030968

> <r_i_glide_energy>
-37.6589374542236

> <r_i_glide_einternal>
7.71384572982788

> <i_i_glide_confnum>
34

> <i_i_glide_posenum>
126

> <r_i_glide_eff_state_penalty>
0

> <s_user_duplicate_titles>
CHEMBL3192_lig1041

> <s_m_subgroup_title>
dock_pv

> <s_m_subgroupid>
dock_pv

> <b_m_subgroup_collapsed>
1

$$$$
CHEMBL3192_lig1086
                    3D
 Schrodinger Suite 2021-1.
 45 47  0  0  1  0            999 V2000
  -30.6129   25.3970  -37.1300 O   0  0  0  0  0  0
  -29.7510   26.4690  -37.4254 N   0  0  0  0  0  0
  -29.6407   26.8690  -38.7037 C   0  0  0  0  0  0
  -30.4089   26.4696  -39.5810 O   0  0  0  0  0  0
  -28.6311   27.9608  -39.0013 C   0  0  0  0  0  0
  -27.4130   27.9845  -38.3401 C   0  0  0  0  0  0
  -26.4998   29.0084  -38.5191 C   0  0  0  0  0  0
  -26.7336   30.0084  -39.4344 C   0  0  0  0  0  0
  -25.7301   30.9821  -39.6014 N   0  0  0  0  0  0
  -26.0284   32.1834  -40.3810 C   0  0  0  0  0  0
  -26.9371   31.8648  -41.5860 C   0  0  2  0  0  0
  -28.2130   31.1303  -41.1309 C   0  0  0  0  0  0
  -27.9435   30.0197  -40.1447 C   0  0  0  0  0  0
  -28.8784   28.9907  -39.9238 C   0  0  0  0  0  0
  -26.2118   30.9719  -42.5229 N   0  0  1  0  0  0
  -25.2060   31.6320  -43.8003 S   0  0  0  0  0  0
  -24.5849   32.8614  -43.2976 O   0  0  0  0  0  0
  -24.3898   30.5276  -44.3191 O   0  0  0  0  0  0
  -26.3617   32.1136  -45.0825 C   0  0  0  0  0  0
  -26.4923   31.3521  -46.2454 C   0  0  0  0  0  0
  -27.4060   31.7335  -47.2261 C   0  0  0  0  0  0
  -28.1964   32.8690  -47.0445 C   0  0  0  0  0  0
  -28.0844   33.6406  -45.8870 C   0  0  0  0  0  0
  -28.9280   34.7315  -45.7917 O   0  0  0  0  0  0
  -28.9218   35.5568  -44.6280 C   0  0  0  0  0  0
  -29.8462   36.4990  -44.8029 F   0  0  0  0  0  0
  -29.2526   34.8690  -43.5321 F   0  0  0  0  0  0
  -27.7465   36.1656  -44.4639 F   0  0  0  0  0  0
  -27.1451   33.2606  -44.9130 C   0  0  0  0  0  0
  -30.0186   24.6523  -36.9850 H   0  0  0  0  0  0
  -29.1940   26.7757  -36.6336 H   0  0  0  0  0  0
  -27.1628   27.2344  -37.6098 H   0  0  0  0  0  0
  -25.5652   28.9871  -37.9810 H   0  0  0  0  0  0
  -25.0384   31.1153  -38.8757 H   0  0  0  0  0  0
  -26.5143   32.9043  -39.7217 H   0  0  0  0  0  0
  -25.0936   32.6535  -40.6895 H   0  0  0  0  0  0
  -27.2076   32.7923  -42.0885 H   0  0  0  0  0  0
  -28.7001   30.6771  -41.9810 H   0  0  0  0  0  0
  -28.9071   31.8392  -40.6831 H   0  0  0  0  0  0
  -29.8130   29.0157  -40.4652 H   0  0  0  0  0  0
  -25.9184   30.0691  -42.1421 H   0  0  0  0  0  0
  -25.8880   30.4690  -46.3922 H   0  0  0  0  0  0
  -27.5103   31.1458  -48.1264 H   0  0  0  0  0  0
  -28.9136   33.1472  -47.8040 H   0  0  0  0  0  0
  -27.0128   33.8474  -44.0182 H   0  0  0  0  0  0
  1  2  1  0  0  0
  1 30  1  0  0  0
  2  3  1  0  0  0
  2 31  1  0  0  0
  3  4  2  0  0  0
  3  5  1  0  0  0
  5  6  2  0  0  0
  5 14  1  0  0  0
  6  7  1  0  0  0
  6 32  1  0  0  0
  7  8  2  0  0  0
  7 33  1  0  0  0
  8  9  1  0  0  0
  8 13  1  0  0  0
  9 10  1  0  0  0
  9 34  1  0  0  0
 10 11  1  0  0  0
 10 35  1  0  0  0
 10 36  1  0  0  0
 11 12  1  0  0  0
 11 15  1  0  0  0
 11 37  1  0  0  0
 12 13  1  0  0  0
 12 38  1  0  0  0
 12 39  1  0  0  0
 13 14  2  0  0  0
 14 40  1  0  0  0
 15 16  1  0  0  0
 15 41  1  0  0  0
 16 17  2  0  0  0
 16 18  2  0  0  0
 16 19  1  0  0  0
 19 20  2  0  0  0
 19 29  1  0  0  0
 20 21  1  0  0  0
 20 42  1  0  0  0
 21 22  2  0  0  0
 21 43  1  0  0  0
 22 23  1  0  0  0
 22 44  1  0  0  0
 23 24  1  0  0  0
 23 29  2  0  0  0
 24 25  1  0  0  0
 25 26  1  0  0  0
 25 27  1  0  0  0
 25 28  1  0  0  0
 29 45  1  0  0  0
M  END
> <s_m_entry_id>
53003

> <s_m_entry_name>
dock_pv.222

> <s_m_Source_Path>
/home/csk/Desktop/cluster/DUD-E-result/hdac8

> <s_m_Source_File>
dock_pv.maegz

> <i_m_Source_File_Index>
222

> <chembl_id>
CHEMBL3694331

> <chembl_pref_name>
None

> <i_lp_mmshare_version>
53161

> <i_f3d_flags>
0

> <r_lp_tautomer_probability>
1

> <s_lp_Force_Field>
OPLS_2005

> <r_lp_Energy>
23.599954

> <b_lp_Chiralities_Consistent>
1

> <s_lp_Variant>
CHEMBL3192_lig1086-1

> <s_i_glide_gridfile>
glide-grid_3f07

> <i_i_glide_lignum>
1211

> <i_i_glide_rotatable_bonds>
8

> <r_i_docking_score>
-7.52215141174945

> <r_i_glide_ligand_efficiency>
-0.259384531439636

> <r_i_glide_ligand_efficiency_sa>
-0.796911459370155

> <r_i_glide_ligand_efficiency_ln>
-1.72238192798878

> <r_i_glide_gscore>
-7.52215141174945

> <r_i_glide_lipo>
-1.50847815328028

> <r_i_glide_hbond>
-0.608

> <r_i_glide_metal>
-2.3

> <r_i_glide_rewards>
-0.574115464662263

> <r_i_glide_evdw>
-21.8670845031738

> <r_i_glide_ecoul>
-12.6189613342285

> <r_i_glide_erotb>
0.641267015194719

> <r_i_glide_esite>
-0.186626383708659

> <r_i_glide_emodel>
-50.8193081170176

> <r_i_glide_energy>
-34.4860458374023

> <r_i_glide_einternal>
1.2983980178833

> <i_i_glide_confnum>
34

> <i_i_glide_posenum>
254

> <r_i_glide_eff_state_penalty>
0

> <s_user_duplicate_titles>
CHEMBL3192_lig1086

> <s_m_subgroup_title>
dock_pv

> <s_m_subgroupid>
dock_pv

> <b_m_subgroup_collapsed>
1

$$$$
CHEMBL3192_lig1067
                    3D
 Schrodinger Suite 2021-1.
 42 44  0  0  1  0            999 V2000
  -30.5818   26.0134  -37.0976 O   0  0  0  0  0  0
  -29.5256   26.8690  -37.4652 N   0  0  0  0  0  0
  -29.4130   27.2506  -38.7456 C   0  0  0  0  0  0
  -30.2130   26.8446  -39.5810 O   0  0  0  0  0  0
  -28.3647   28.2881  -39.0862 C   0  0  0  0  0  0
  -27.1783   28.3006  -38.3807 C   0  0  0  0  0  0
  -26.2130   29.2690  -38.5875 C   0  0  0  0  0  0
  -26.3490   30.2296  -39.5722 C   0  0  0  0  0  0
  -25.1841   31.1936  -39.8239 C   0  0  0  0  0  0
  -25.5871   32.3976  -40.6901 C   0  0  0  0  0  0
  -26.4298   31.9562  -41.8960 C   0  0  2  0  0  0
  -27.7281   31.2783  -41.4241 C   0  0  0  0  0  0
  -27.5306   30.2249  -40.3441 C   0  0  0  0  0  0
  -28.5308   29.2654  -40.0814 C   0  0  0  0  0  0
  -25.6457   30.9933  -42.7094 N   0  0  2  0  0  0
  -24.7433   31.5571  -44.1060 S   0  0  0  0  0  0
  -23.9811   32.7428  -43.7020 O   0  0  0  0  0  0
  -24.0787   30.3850  -44.6890 O   0  0  0  0  0  0
  -25.9985   32.1058  -45.2636 C   0  0  0  0  0  0
  -26.4046   31.2690  -46.3054 C   0  0  0  0  0  0
  -27.4129   31.6733  -47.1806 C   0  0  0  0  0  0
  -28.0200   32.9185  -47.0186 C   0  0  0  0  0  0
  -27.6080   33.7652  -45.9889 C   0  0  0  0  0  0
  -28.3608   35.3042  -45.7846 Cl  0  0  0  0  0  0
  -26.5913   33.3651  -45.1199 C   0  0  0  0  0  0
  -31.1768   26.5833  -36.6003 H   0  0  0  0  0  0
  -29.0130   27.2286  -36.6633 H   0  0  0  0  0  0
  -27.0130   27.5623  -37.6098 H   0  0  0  0  0  0
  -25.3061   29.2452  -38.0007 H   0  0  0  0  0  0
  -24.7666   31.5466  -38.8788 H   0  0  0  0  0  0
  -24.3831   30.6417  -40.3187 H   0  0  0  0  0  0
  -26.1578   33.0966  -40.0758 H   0  0  0  0  0  0
  -24.6902   32.9290  -41.0128 H   0  0  0  0  0  0
  -26.6126   32.8698  -42.4596 H   0  0  0  0  0  0
  -28.2130   30.8264  -42.2816 H   0  0  0  0  0  0
  -28.4028   32.0399  -41.0342 H   0  0  0  0  0  0
  -29.4428   29.2871  -40.6612 H   0  0  0  0  0  0
  -26.0885   30.0817  -42.8379 H   0  0  0  0  0  0
  -25.9415   30.3022  -46.4321 H   0  0  0  0  0  0
  -27.7310   31.0209  -47.9807 H   0  0  0  0  0  0
  -28.8099   33.2246  -47.6904 H   0  0  0  0  0  0
  -26.2706   34.0332  -44.3336 H   0  0  0  0  0  0
  1  2  1  0  0  0
  1 26  1  0  0  0
  2  3  1  0  0  0
  2 27  1  0  0  0
  3  4  2  0  0  0
  3  5  1  0  0  0
  5  6  2  0  0  0
  5 14  1  0  0  0
  6  7  1  0  0  0
  6 28  1  0  0  0
  7  8  2  0  0  0
  7 29  1  0  0  0
  8  9  1  0  0  0
  8 13  1  0  0  0
  9 10  1  0  0  0
  9 30  1  0  0  0
  9 31  1  0  0  0
 10 11  1  0  0  0
 10 32  1  0  0  0
 10 33  1  0  0  0
 11 12  1  0  0  0
 11 15  1  0  0  0
 11 34  1  0  0  0
 12 13  1  0  0  0
 12 35  1  0  0  0
 12 36  1  0  0  0
 13 14  2  0  0  0
 14 37  1  0  0  0
 15 16  1  0  0  0
 15 38  1  0  0  0
 16 17  2  0  0  0
 16 18  2  0  0  0
 16 19  1  0  0  0
 19 20  2  0  0  0
 19 25  1  0  0  0
 20 21  1  0  0  0
 20 39  1  0  0  0
 21 22  2  0  0  0
 21 40  1  0  0  0
 22 23  1  0  0  0
 22 41  1  0  0  0
 23 24  1  0  0  0
 23 25  2  0  0  0
 25 42  1  0  0  0
M  END
> <s_m_entry_id>
53004

> <s_m_entry_name>
dock_pv.223

> <s_m_Source_Path>
/home/csk/Desktop/cluster/DUD-E-result/hdac8

> <s_m_Source_File>
dock_pv.maegz

> <i_m_Source_File_Index>
223

> <chembl_id>
CHEMBL3357485

> <chembl_pref_name>
None

> <i_lp_mmshare_version>
53161

> <i_f3d_flags>
0

> <r_lp_tautomer_probability>
1

> <s_lp_Force_Field>
OPLS_2005

> <r_lp_Energy>
27.159267

> <b_lp_Chiralities_Consistent>
1

> <s_lp_Variant>
CHEMBL3192_lig1067-1

> <s_i_glide_gridfile>
glide-grid_3f07

> <i_i_glide_lignum>
1173

> <i_i_glide_rotatable_bonds>
6

> <r_i_docking_score>
-7.51884057010098

> <r_i_glide_ligand_efficiency>
-0.300753622804039

> <r_i_glide_ligand_efficiency_sa>
-0.879408926967223

> <r_i_glide_ligand_efficiency_ln>
-1.78219053658349

> <r_i_glide_gscore>
-7.51884057010098

> <r_i_glide_lipo>
-1.44687534321702

> <r_i_glide_hbond>
-0.608

> <r_i_glide_metal>
-1.75525382726415

> <r_i_glide_rewards>
-0.995396192962891

> <r_i_glide_evdw>
-21.7007122039795

> <r_i_glide_ecoul>
-13.9813852310181

> <r_i_glide_erotb>
0.668928188194765

> <r_i_glide_esite>
-0.2

> <r_i_glide_emodel>
-53.1422907760713

> <r_i_glide_energy>
-35.6820974349976

> <r_i_glide_einternal>
0.796709060668945

> <i_i_glide_confnum>
130

> <i_i_glide_posenum>
265

> <r_i_glide_eff_state_penalty>
0

> <s_user_duplicate_titles>
CHEMBL3192_lig1067

> <s_m_subgroup_title>
dock_pv

> <s_m_subgroupid>
dock_pv

> <b_m_subgroup_collapsed>
1

$$$$
CHEMBL3192_lig1032
                    3D
 Schrodinger Suite 2021-1.
 37 39  0  0  1  0            999 V2000
  -30.2362   25.5378  -37.3516 O   0  0  0  0  0  0
  -29.4134   26.6587  -37.5810 N   0  0  0  0  0  0
  -29.4004   27.2068  -38.8023 C   0  0  0  0  0  0
  -30.2300   26.8690  -39.6401 O   0  0  0  0  0  0
  -28.3702   28.2862  -39.0904 C   0  0  0  0  0  0
  -27.1871   28.3102  -38.3727 C   0  0  0  0  0  0
  -26.2129   29.2691  -38.5875 C   0  0  0  0  0  0
  -26.3227   30.1967  -39.6036 C   0  0  0  0  0  0
  -25.1755   31.1785  -39.8416 C   0  0  0  0  0  0
  -25.1658   31.6985  -41.2870 C   0  0  0  0  0  0
  -26.5491   32.2338  -41.6857 C   0  0  1  0  0  0
  -27.6126   31.1131  -41.5810 C   0  0  0  0  0  0
  -27.4973   30.1893  -40.3800 C   0  0  0  0  0  0
  -28.5215   29.2613  -40.0912 C   0  0  0  0  0  0
  -26.9013   33.3664  -40.8245 N   0  0  0  0  0  0
  -27.6785   34.4479  -41.2557 C   0  0  0  0  0  0
  -28.1755   34.4690  -42.5245 N   0  0  0  0  0  0
  -28.9150   35.5520  -42.8768 C   0  0  0  0  0  0
  -29.1646   36.6018  -41.9922 C   0  0  0  0  0  0
  -28.6129   36.4906  -40.7149 C   0  0  0  0  0  0
  -27.8781   35.4169  -40.3273 N   0  0  0  0  0  0
  -29.6187   24.7978  -37.2969 H   0  0  0  0  0  0
  -28.8047   26.8774  -36.7985 H   0  0  0  0  0  0
  -27.0130   27.5853  -37.5910 H   0  0  0  0  0  0
  -25.3172   29.2564  -37.9830 H   0  0  0  0  0  0
  -25.2744   32.0140  -39.1474 H   0  0  0  0  0  0
  -24.2158   30.7125  -39.6118 H   0  0  0  0  0  0
  -24.4092   32.4774  -41.3965 H   0  0  0  0  0  0
  -24.8724   30.8963  -41.9659 H   0  0  0  0  0  0
  -26.5214   32.5789  -42.7210 H   0  0  0  0  0  0
  -27.5273   30.4896  -42.4702 H   0  0  0  0  0  0
  -28.6130   31.5255  -41.5805 H   0  0  0  0  0  0
  -29.4158   29.2688  -40.6985 H   0  0  0  0  0  0
  -26.6126   33.3421  -39.8550 H   0  0  0  0  0  0
  -29.2975   35.5712  -43.8875 H   0  0  0  0  0  0
  -29.7426   37.4659  -42.2863 H   0  0  0  0  0  0
  -28.7468   37.2706  -39.9809 H   0  0  0  0  0  0
  1  2  1  0  0  0
  1 22  1  0  0  0
  2  3  1  0  0  0
  2 23  1  0  0  0
  3  4  2  0  0  0
  3  5  1  0  0  0
  5  6  2  0  0  0
  5 14  1  0  0  0
  6  7  1  0  0  0
  6 24  1  0  0  0
  7  8  2  0  0  0
  7 25  1  0  0  0
  8  9  1  0  0  0
  8 13  1  0  0  0
  9 10  1  0  0  0
  9 26  1  0  0  0
  9 27  1  0  0  0
 10 11  1  0  0  0
 10 28  1  0  0  0
 10 29  1  0  0  0
 11 12  1  0  0  0
 11 15  1  0  0  0
 11 30  1  0  0  0
 12 13  1  0  0  0
 12 31  1  0  0  0
 12 32  1  0  0  0
 13 14  2  0  0  0
 14 33  1  0  0  0
 15 16  1  0  0  0
 15 34  1  0  0  0
 16 17  2  0  0  0
 16 21  1  0  0  0
 17 18  1  0  0  0
 18 19  2  0  0  0
 18 35  1  0  0  0
 19 20  1  0  0  0
 19 36  1  0  0  0
 20 21  2  0  0  0
 20 37  1  0  0  0
M  END
> <s_m_entry_id>
53005

> <s_m_entry_name>
dock_pv.224

> <s_m_Source_Path>
/home/csk/Desktop/cluster/DUD-E-result/hdac8

> <s_m_Source_File>
dock_pv.maegz

> <i_m_Source_File_Index>
224

> <chembl_id>
CHEMBL3357477

> <chembl_pref_name>
None

> <i_lp_mmshare_version>
53161

> <i_f3d_flags>
0

> <r_lp_tautomer_probability>
0.999999987636

> <s_lp_Force_Field>
OPLS_2005

> <r_lp_Energy>
12.995651

> <b_lp_Chiralities_Consistent>
1

> <s_lp_Variant>
CHEMBL3192_lig1032-2

> <s_i_glide_gridfile>
glide-grid_3f07

> <i_i_glide_lignum>
1104

> <i_i_glide_rotatable_bonds>
5

> <r_i_docking_score>
-7.51872439762699

> <r_i_glide_ligand_efficiency>
-0.358034495125095

> <r_i_glide_ligand_efficiency_sa>
-0.987790023576583

> <r_i_glide_ligand_efficiency_ln>
-1.85898941430008

> <r_i_glide_gscore>
-7.51872439762699

> <r_i_glide_lipo>
-0.885991220006104

> <r_i_glide_hbond>
-0.608

> <r_i_glide_metal>
-1.84143820635671

> <r_i_glide_rewards>
-1.73130024344811

> <r_i_glide_evdw>
-15.8892297744751

> <r_i_glide_ecoul>
-14.9080543518066

> <r_i_glide_erotb>
0.896899765115624

> <r_i_glide_esite>
-0.318224851436942

> <r_i_glide_emodel>
-47.2408969999669

> <r_i_glide_energy>
-30.7972841262817

> <r_i_glide_einternal>
0.930073142051697

> <i_i_glide_confnum>
42

> <i_i_glide_posenum>
398

> <r_i_glide_eff_state_penalty>
0

> <s_user_duplicate_titles>
CHEMBL3192_lig1032

> <s_m_subgroup_title>
dock_pv

> <s_m_subgroupid>
dock_pv

> <b_m_subgroup_collapsed>
1

$$$$
CHEMBL3192_lig1032
                    3D
 Schrodinger Suite 2021-1.
 37 39  0  0  1  0            999 V2000
  -30.2367   25.5260  -37.3394 O   0  0  0  0  0  0
  -29.4130   26.6429  -37.5810 N   0  0  0  0  0  0
  -29.4114   27.1887  -38.8013 C   0  0  0  0  0  0
  -30.2543   26.8690  -39.6332 O   0  0  0  0  0  0
  -28.3817   28.2645  -39.0848 C   0  0  0  0  0  0
  -27.1898   28.2744  -38.3810 C   0  0  0  0  0  0
  -26.2393   29.2690  -38.5534 C   0  0  0  0  0  0
  -26.4147   30.2775  -39.4802 C   0  0  0  0  0  0
  -25.3162   31.3264  -39.6445 C   0  0  0  0  0  0
  -25.8198   32.5780  -40.3810 C   0  0  0  0  0  0
  -26.5802   32.2038  -41.6600 C   0  0  2  0  0  0
  -27.8130   31.3428  -41.3067 C   0  0  0  0  0  0
  -27.5857   30.2629  -40.2640 C   0  0  0  0  0  0
  -28.5615   29.2690  -40.0462 C   0  0  0  0  0  0
  -25.6866   31.4774  -42.5643 N   0  0  0  0  0  0
  -25.7931   31.5226  -43.9590 C   0  0  0  0  0  0
  -26.7930   32.2409  -44.5439 N   0  0  0  0  0  0
  -26.8141   32.2644  -45.9017 C   0  0  0  0  0  0
  -25.8510   31.6122  -46.6733 C   0  0  0  0  0  0
  -24.8603   30.9127  -45.9812 C   0  0  0  0  0  0
  -24.8285   30.8397  -44.6267 N   0  0  0  0  0  0
  -29.6207   24.7852  -37.2832 H   0  0  0  0  0  0
  -28.8091   26.8824  -36.8001 H   0  0  0  0  0  0
  -27.0110   27.5117  -37.6389 H   0  0  0  0  0  0
  -25.3248   29.2410  -37.9810 H   0  0  0  0  0  0
  -24.9162   31.6167  -38.6715 H   0  0  0  0  0  0
  -24.4823   30.8820  -40.1892 H   0  0  0  0  0  0
  -26.4723   33.1510  -39.7199 H   0  0  0  0  0  0
  -24.9814   33.2387  -40.6083 H   0  0  0  0  0  0
  -26.9253   33.1085  -42.1640 H   0  0  0  0  0  0
  -28.2128   30.8690  -42.2008 H   0  0  0  0  0  0
  -28.5940   32.0002  -40.9259 H   0  0  0  0  0  0
  -29.4684   29.2896  -40.6342 H   0  0  0  0  0  0
  -25.0498   30.8061  -42.1637 H   0  0  0  0  0  0
  -27.6108   32.8285  -46.3652 H   0  0  0  0  0  0
  -25.8672   31.6565  -47.7523 H   0  0  0  0  0  0
  -24.0629   30.4111  -46.5072 H   0  0  0  0  0  0
  1  2  1  0  0  0
  1 22  1  0  0  0
  2  3  1  0  0  0
  2 23  1  0  0  0
  3  4  2  0  0  0
  3  5  1  0  0  0
  5  6  2  0  0  0
  5 14  1  0  0  0
  6  7  1  0  0  0
  6 24  1  0  0  0
  7  8  2  0  0  0
  7 25  1  0  0  0
  8  9  1  0  0  0
  8 13  1  0  0  0
  9 10  1  0  0  0
  9 26  1  0  0  0
  9 27  1  0  0  0
 10 11  1  0  0  0
 10 28  1  0  0  0
 10 29  1  0  0  0
 11 12  1  0  0  0
 11 15  1  0  0  0
 11 30  1  0  0  0
 12 13  1  0  0  0
 12 31  1  0  0  0
 12 32  1  0  0  0
 13 14  2  0  0  0
 14 33  1  0  0  0
 15 16  1  0  0  0
 15 34  1  0  0  0
 16 17  2  0  0  0
 16 21  1  0  0  0
 17 18  1  0  0  0
 18 19  2  0  0  0
 18 35  1  0  0  0
 19 20  1  0  0  0
 19 36  1  0  0  0
 20 21  2  0  0  0
 20 37  1  0  0  0
M  END
> <s_m_entry_id>
53006

> <s_m_entry_name>
dock_pv.225

> <s_m_Source_Path>
/home/csk/Desktop/cluster/DUD-E-result/hdac8

> <s_m_Source_File>
dock_pv.maegz

> <i_m_Source_File_Index>
225

> <chembl_id>
CHEMBL3357477

> <chembl_pref_name>
None

> <i_lp_mmshare_version>
53161

> <i_f3d_flags>
0

> <r_lp_tautomer_probability>
0.999999987636

> <s_lp_Force_Field>
OPLS_2005

> <r_lp_Energy>
14.754302

> <b_lp_Chiralities_Consistent>
1

> <s_lp_Variant>
CHEMBL3192_lig1032-1

> <s_i_glide_gridfile>
glide-grid_3f07

> <i_i_glide_lignum>
1103

> <i_i_glide_rotatable_bonds>
5

> <r_i_docking_score>
-7.51065574606481

> <r_i_glide_ligand_efficiency>
-0.357650273622134

> <r_i_glide_ligand_efficiency_sa>
-0.986729985584055

> <r_i_glide_ligand_efficiency_ln>
-1.85699445650558

> <r_i_glide_gscore>
-7.51065574606481

> <r_i_glide_lipo>
-1.16006179502912

> <r_i_glide_hbond>
-0.608

> <r_i_glide_metal>
-1.844376447582

> <r_i_glide_rewards>
-1.70954068661436

> <r_i_glide_evdw>
-18.3469371795654

> <r_i_glide_ecoul>
-13.1215314865112

> <r_i_glide_erotb>
0.896899765115624

> <r_i_glide_esite>
-0.2

> <r_i_glide_emodel>
-47.713923598286

> <r_i_glide_energy>
-31.4684686660767

> <r_i_glide_einternal>
0.722072422504425

> <i_i_glide_confnum>
36

> <i_i_glide_posenum>
389

> <r_i_glide_eff_state_penalty>
0

> <s_user_duplicate_titles>
CHEMBL3192_lig1032

> <s_m_subgroup_title>
dock_pv

> <s_m_subgroupid>
dock_pv

> <b_m_subgroup_collapsed>
1

$$$$
CHEMBL3192_lig455
                    3D
 Schrodinger Suite 2021-1.
 48 49  0  0  1  0            999 V2000
  -22.9174   31.2769  -44.3394 C   0  0  0  0  0  0
  -24.7672   32.5534  -42.6665 C   0  0  0  0  0  0
  -23.4637   32.3220  -42.2155 C   0  0  0  0  0  0
  -22.5501   31.6853  -43.0590 C   0  0  0  0  0  0
  -23.0404   32.7302  -40.7998 C   0  0  2  0  0  0
  -23.3279   31.6277  -39.7534 C   0  0  0  0  0  0
  -23.6121   33.9572  -40.3810 O   0  0  0  0  0  0
  -24.8152   31.2394  -39.6111 C   0  0  0  0  0  0
  -25.0705   30.1659  -38.5425 C   0  0  0  0  0  0
  -26.5585   29.7984  -38.3807 C   0  0  0  0  0  0
  -27.2523   29.2764  -39.6573 C   0  0  0  0  0  0
  -28.6255   28.6239  -39.4070 C   0  0  0  0  0  0
  -28.5197   27.2667  -38.6707 C   0  0  0  0  0  0
  -29.8132   26.4444  -38.6202 C   0  0  0  0  0  0
  -30.0060   25.6846  -37.5301 N   0  0  0  0  0  0
  -30.6075   26.4690  -39.5720 O   0  0  0  0  0  0
  -31.0996   24.8096  -37.5097 O   0  0  0  0  0  0
  -24.2341   31.4909  -44.8085 C   0  0  0  0  0  0
  -25.1788   32.1356  -43.9549 C   0  0  0  0  0  0
  -26.5016   32.3391  -44.4203 C   0  0  0  0  0  0
  -26.8710   31.9193  -45.6957 C   0  0  0  0  0  0
  -25.9476   31.3004  -46.5312 C   0  0  0  0  0  0
  -24.6393   31.0874  -46.1031 C   0  0  0  0  0  0
  -22.1955   30.7935  -44.9816 H   0  0  0  0  0  0
  -25.4804   33.0452  -42.0197 H   0  0  0  0  0  0
  -21.5406   31.5031  -42.7191 H   0  0  0  0  0  0
  -21.9632   32.9053  -40.8159 H   0  0  0  0  0  0
  -22.9431   31.9449  -38.7825 H   0  0  0  0  0  0
  -22.7545   30.7371  -40.0138 H   0  0  0  0  0  0
  -23.5716   34.0165  -39.4146 H   0  0  0  0  0  0
  -25.1777   30.8687  -40.5686 H   0  0  0  0  0  0
  -25.4061   32.1260  -39.3783 H   0  0  0  0  0  0
  -24.6823   30.5145  -37.5814 H   0  0  0  0  0  0
  -24.4983   29.2697  -38.7811 H   0  0  0  0  0  0
  -27.0896   30.6709  -38.0080 H   0  0  0  0  0  0
  -26.6377   29.0495  -37.5956 H   0  0  0  0  0  0
  -26.6086   28.5574  -40.1655 H   0  0  0  0  0  0
  -27.3793   30.1038  -40.3571 H   0  0  0  0  0  0
  -29.1063   28.4924  -40.3793 H   0  0  0  0  0  0
  -29.2589   29.3121  -38.8445 H   0  0  0  0  0  0
  -28.1433   27.4097  -37.6580 H   0  0  0  0  0  0
  -27.7890   26.6447  -39.1874 H   0  0  0  0  0  0
  -29.4069   25.5894  -36.7216 H   0  0  0  0  0  0
  -30.6990   23.9345  -37.5803 H   0  0  0  0  0  0
  -27.2232   32.8213  -43.7766 H   0  0  0  0  0  0
  -27.8844   32.0774  -46.0391 H   0  0  0  0  0  0
  -26.2515   30.9866  -47.5195 H   0  0  0  0  0  0
  -23.9247   30.6120  -46.7594 H   0  0  0  0  0  0
  1 18  1  0  0  0
  1  4  2  0  0  0
  1 24  1  0  0  0
  2  3  2  0  0  0
  2 19  1  0  0  0
  2 25  1  0  0  0
  3  4  1  0  0  0
  3  5  1  0  0  0
  4 26  1  0  0  0
  5  6  1  0  0  0
  5  7  1  0  0  0
  5 27  1  0  0  0
  6  8  1  0  0  0
  6 28  1  0  0  0
  6 29  1  0  0  0
  7 30  1  0  0  0
  8  9  1  0  0  0
  8 31  1  0  0  0
  8 32  1  0  0  0
  9 10  1  0  0  0
  9 33  1  0  0  0
  9 34  1  0  0  0
 10 11  1  0  0  0
 10 35  1  0  0  0
 10 36  1  0  0  0
 11 12  1  0  0  0
 11 37  1  0  0  0
 11 38  1  0  0  0
 12 13  1  0  0  0
 12 39  1  0  0  0
 12 40  1  0  0  0
 13 14  1  0  0  0
 13 41  1  0  0  0
 13 42  1  0  0  0
 14 15  1  0  0  0
 14 16  2  0  0  0
 15 17  1  0  0  0
 15 43  1  0  0  0
 17 44  1  0  0  0
 18 19  1  0  0  0
 18 23  2  0  0  0
 19 20  2  0  0  0
 20 21  1  0  0  0
 20 45  1  0  0  0
 21 22  2  0  0  0
 21 46  1  0  0  0
 22 23  1  0  0  0
 22 47  1  0  0  0
 23 48  1  0  0  0
M  END
> <s_m_entry_id>
53007

> <s_m_entry_name>
dock_pv.226

> <s_m_Source_Path>
/home/csk/Desktop/cluster/DUD-E-result/hdac8

> <s_m_Source_File>
dock_pv.maegz

> <i_m_Source_File_Index>
226

> <chembl_id>
CHEMBL2235659

> <chembl_pref_name>
None

> <i_lp_mmshare_version>
53161

> <i_f3d_flags>
0

> <r_lp_tautomer_probability>
1

> <s_lp_Force_Field>
OPLS_2005

> <r_lp_Energy>
14.656868

> <b_lp_Chiralities_Consistent>
1

> <s_lp_Variant>
CHEMBL3192_lig455-1

> <s_i_glide_gridfile>
glide-grid_3f07

> <i_i_glide_lignum>
474

> <i_i_glide_rotatable_bonds>
12

> <r_i_docking_score>
-7.50772615979569

> <r_i_glide_ligand_efficiency>
-0.326422876512856

> <r_i_glide_ligand_efficiency_sa>
-0.928303239012846

> <r_i_glide_ligand_efficiency_ln>
-1.81543626173562

> <r_i_glide_gscore>
-7.50772615979569

> <r_i_glide_lipo>
-1.12734705425825

> <r_i_glide_hbond>
-0.460706645421279

> <r_i_glide_metal>
-2.3

> <r_i_glide_rewards>
-1.30834776460388

> <r_i_glide_evdw>
-24.3423919677734

> <r_i_glide_ecoul>
-17.6105117797852

> <r_i_glide_erotb>
1.68292275400259

> <r_i_glide_esite>
-0.135551084158415

> <r_i_glide_emodel>
-66.6012281056029

> <r_i_glide_energy>
-41.9529037475586

> <r_i_glide_einternal>
3.49420261383057

> <i_i_glide_confnum>
25

> <i_i_glide_posenum>
149

> <r_i_glide_eff_state_penalty>
0

> <s_user_duplicate_titles>
CHEMBL3192_lig455

> <s_m_subgroup_title>
dock_pv

> <s_m_subgroupid>
dock_pv

> <b_m_subgroup_collapsed>
1

$$$$
CHEMBL3192_lig1063
                    3D
 Schrodinger Suite 2021-1.
 44 46  0  0  1  0            999 V2000
  -30.6130   25.3959  -37.1297 O   0  0  0  0  0  0
  -29.7527   26.4690  -37.4254 N   0  0  0  0  0  0
  -29.6423   26.8690  -38.7038 C   0  0  0  0  0  0
  -30.4094   26.4690  -39.5810 O   0  0  0  0  0  0
  -28.6324   27.9622  -39.0009 C   0  0  0  0  0  0
  -27.4130   27.9780  -38.3479 C   0  0  0  0  0  0
  -26.5043   29.0062  -38.5181 C   0  0  0  0  0  0
  -26.7230   30.0306  -39.4159 C   0  0  0  0  0  0
  -25.6217   31.0684  -39.6460 C   0  0  0  0  0  0
  -26.1428   32.3102  -40.3810 C   0  0  0  0  0  0
  -26.9726   31.9164  -41.6140 C   0  0  2  0  0  0
  -28.2130   31.1414  -41.1199 C   0  0  0  0  0  0
  -27.9347   30.0278  -40.1307 C   0  0  0  0  0  0
  -28.8767   29.0023  -39.9119 C   0  0  0  0  0  0
  -26.2318   31.1262  -42.6033 N   0  0  0  0  0  0
  -25.4197   31.6816  -43.5727 C   0  0  0  0  0  0
  -25.2149   32.8822  -43.7526 O   0  0  0  0  0  0
  -24.9051   30.6848  -44.3219 O   0  0  0  0  0  0
  -24.1154   30.9563  -45.4798 C   0  0  0  0  0  0
  -24.9371   31.2791  -46.7309 C   0  0  0  0  0  0
  -26.3411   31.3057  -46.7499 C   0  0  0  0  0  0
  -27.0130   31.6229  -47.9314 C   0  0  0  0  0  0
  -26.2610   31.8818  -49.0771 C   0  0  0  0  0  0
  -24.9045   31.8519  -49.0893 N   0  0  0  0  0  0
  -24.2666   31.5650  -47.9255 C   0  0  0  0  0  0
  -30.0176   24.6521  -36.9842 H   0  0  0  0  0  0
  -29.1974   26.7784  -36.6334 H   0  0  0  0  0  0
  -27.1586   27.2185  -37.6287 H   0  0  0  0  0  0
  -25.5691   28.9740  -37.9810 H   0  0  0  0  0  0
  -25.1687   31.3662  -38.6984 H   0  0  0  0  0  0
  -24.8254   30.6060  -40.2312 H   0  0  0  0  0  0
  -26.7448   32.9141  -39.6998 H   0  0  0  0  0  0
  -25.3078   32.9510  -40.6700 H   0  0  0  0  0  0
  -27.3265   32.8146  -42.1274 H   0  0  0  0  0  0
  -28.6130   30.6156  -41.9810 H   0  0  0  0  0  0
  -29.0360   31.8024  -40.8534 H   0  0  0  0  0  0
  -29.8129   29.0347  -40.4507 H   0  0  0  0  0  0
  -26.2663   30.1213  -42.5372 H   0  0  0  0  0  0
  -23.4087   31.7659  -45.2861 H   0  0  0  0  0  0
  -23.5196   30.0690  -45.6886 H   0  0  0  0  0  0
  -26.9198   31.0929  -45.8637 H   0  0  0  0  0  0
  -28.0920   31.6690  -47.9592 H   0  0  0  0  0  0
  -26.7476   32.1263  -50.0102 H   0  0  0  0  0  0
  -23.1866   31.5629  -47.9687 H   0  0  0  0  0  0
  1  2  1  0  0  0
  1 26  1  0  0  0
  2  3  1  0  0  0
  2 27  1  0  0  0
  3  4  2  0  0  0
  3  5  1  0  0  0
  5  6  2  0  0  0
  5 14  1  0  0  0
  6  7  1  0  0  0
  6 28  1  0  0  0
  7  8  2  0  0  0
  7 29  1  0  0  0
  8  9  1  0  0  0
  8 13  1  0  0  0
  9 10  1  0  0  0
  9 30  1  0  0  0
  9 31  1  0  0  0
 10 11  1  0  0  0
 10 32  1  0  0  0
 10 33  1  0  0  0
 11 12  1  0  0  0
 11 15  1  0  0  0
 11 34  1  0  0  0
 12 13  1  0  0  0
 12 35  1  0  0  0
 12 36  1  0  0  0
 13 14  2  0  0  0
 14 37  1  0  0  0
 15 16  1  0  0  0
 15 38  1  0  0  0
 16 17  2  0  0  0
 16 18  1  0  0  0
 18 19  1  0  0  0
 19 20  1  0  0  0
 19 39  1  0  0  0
 19 40  1  0  0  0
 20 21  2  0  0  0
 20 25  1  0  0  0
 21 22  1  0  0  0
 21 41  1  0  0  0
 22 23  2  0  0  0
 22 42  1  0  0  0
 23 24  1  0  0  0
 23 43  1  0  0  0
 24 25  2  0  0  0
 25 44  1  0  0  0
M  END
> <s_m_entry_id>
53008

> <s_m_entry_name>
dock_pv.227

> <s_m_Source_Path>
/home/csk/Desktop/cluster/DUD-E-result/hdac8

> <s_m_Source_File>
dock_pv.maegz

> <i_m_Source_File_Index>
227

> <chembl_id>
CHEMBL3694310

> <chembl_pref_name>
None

> <i_lp_mmshare_version>
53161

> <i_f3d_flags>
0

> <r_lp_tautomer_probability>
1

> <s_lp_Force_Field>
OPLS_2005

> <r_lp_Energy>
23.60507

> <b_lp_Chiralities_Consistent>
1

> <s_lp_Variant>
CHEMBL3192_lig1063-1

> <s_i_glide_gridfile>
glide-grid_3f07

> <i_i_glide_lignum>
1165

> <i_i_glide_rotatable_bonds>
8

> <r_i_docking_score>
-7.50292750413036

> <r_i_glide_ligand_efficiency>
-0.300117100165215

> <r_i_glide_ligand_efficiency_sa>
-0.877547723482522

> <r_i_glide_ligand_efficiency_ln>
-1.77841866307235

> <r_i_glide_gscore>
-7.50292750413036

> <r_i_glide_lipo>
-1.09650914434492

> <r_i_glide_hbond>
-0.608

> <r_i_glide_metal>
-2.3

> <r_i_glide_rewards>
-1.38293137524695

> <r_i_glide_evdw>
-20.4952850341797

> <r_i_glide_ecoul>
-12.5319890975952

> <r_i_glide_erotb>
0.975683850720366

> <r_i_glide_esite>
-0.186608218910591

> <r_i_glide_emodel>
-53.3201963733575

> <r_i_glide_energy>
-33.0272741317749

> <r_i_glide_einternal>
0.901885211467743

> <i_i_glide_confnum>
36

> <i_i_glide_posenum>
288

> <r_i_glide_eff_state_penalty>
0

> <s_user_duplicate_titles>
CHEMBL3192_lig1063

> <s_m_subgroup_title>
dock_pv

> <s_m_subgroupid>
dock_pv

> <b_m_subgroup_collapsed>
1

$$$$
CHEMBL3192_lig462
                    3D
 Schrodinger Suite 2021-1.
 48 49  0  0  1  0            999 V2000
  -26.5746   31.4808  -47.1456 C   0  0  0  0  0  0
  -24.1293   31.2385  -45.8068 C   0  0  0  0  0  0
  -25.3137   31.3192  -45.0559 C   0  0  0  0  0  0
  -26.5227   31.4544  -45.7550 C   0  0  0  0  0  0
  -25.2910   31.2979  -43.5547 C   0  0  0  0  0  0
  -26.6130   30.9631  -42.8436 C   0  0  0  0  0  0
  -24.1572   31.5365  -42.8566 C   0  0  0  0  0  0
  -26.5712   30.7082  -41.3216 C   0  0  0  0  0  0
  -27.9635   30.4319  -40.7161 C   0  0  0  0  0  0
  -27.9170   30.0428  -39.2227 C   0  0  0  0  0  0
  -27.4276   28.6027  -38.9638 C   0  0  0  0  0  0
  -28.4997   27.5199  -39.1968 C   0  0  0  0  0  0
  -29.3151   27.1823  -37.9365 C   0  0  0  0  0  0
  -30.3582   26.0773  -38.1315 C   0  0  0  0  0  0
  -25.3884   31.3833  -47.9053 C   0  0  0  0  0  0
  -24.1411   31.2690  -47.2229 C   0  0  0  0  0  0
  -22.9471   31.1674  -47.9810 C   0  0  0  0  0  0
  -22.9957   31.1717  -49.3729 C   0  0  0  0  0  0
  -24.2131   31.2835  -50.0376 C   0  0  0  0  0  0
  -25.4038   31.3902  -49.3224 C   0  0  0  0  0  0
  -30.5077   25.2095  -37.1184 N   0  0  0  0  0  0
  -31.4130   24.1513  -37.2674 O   0  0  0  0  0  0
  -31.0130   26.0690  -39.1810 O   0  0  0  0  0  0
  -27.5260   31.5732  -47.6512 H   0  0  0  0  0  0
  -23.1695   31.1290  -45.3259 H   0  0  0  0  0  0
  -27.4608   31.5399  -45.2294 H   0  0  0  0  0  0
  -27.3012   31.7867  -43.0346 H   0  0  0  0  0  0
  -27.0130   30.0690  -43.3232 H   0  0  0  0  0  0
  -24.1304   31.5061  -41.7783 H   0  0  0  0  0  0
  -23.2199   31.7783  -43.3320 H   0  0  0  0  0  0
  -25.8976   29.8734  -41.1261 H   0  0  0  0  0  0
  -26.1435   31.5732  -40.8121 H   0  0  0  0  0  0
  -28.5746   31.3284  -40.8267 H   0  0  0  0  0  0
  -28.4742   29.6571  -41.2887 H   0  0  0  0  0  0
  -27.2663   30.7426  -38.6959 H   0  0  0  0  0  0
  -28.9058   30.1734  -38.7810 H   0  0  0  0  0  0
  -26.5716   28.3920  -39.6013 H   0  0  0  0  0  0
  -27.0378   28.5247  -37.9492 H   0  0  0  0  0  0
  -29.1766   27.8457  -39.9810 H   0  0  0  0  0  0
  -28.0041   26.6165  -39.5595 H   0  0  0  0  0  0
  -28.6130   26.8690  -37.1810 H   0  0  0  0  0  0
  -29.8125   28.0690  -37.5434 H   0  0  0  0  0  0
  -21.9974   31.0777  -47.4717 H   0  0  0  0  0  0
  -22.0797   31.0929  -49.9405 H   0  0  0  0  0  0
  -24.2330   31.2957  -51.1176 H   0  0  0  0  0  0
  -26.3463   31.4811  -49.8437 H   0  0  0  0  0  0
  -29.9869   25.1719  -36.2521 H   0  0  0  0  0  0
  -30.8463   23.3913  -37.4561 H   0  0  0  0  0  0
  1 15  1  0  0  0
  1  4  2  0  0  0
  1 24  1  0  0  0
  2  3  2  0  0  0
  2 16  1  0  0  0
  2 25  1  0  0  0
  3  4  1  0  0  0
  3  5  1  0  0  0
  4 26  1  0  0  0
  5  6  1  0  0  0
  5  7  2  0  0  0
  6  8  1  0  0  0
  6 27  1  0  0  0
  6 28  1  0  0  0
  7 29  1  0  0  0
  7 30  1  0  0  0
  8  9  1  0  0  0
  8 31  1  0  0  0
  8 32  1  0  0  0
  9 10  1  0  0  0
  9 33  1  0  0  0
  9 34  1  0  0  0
 10 11  1  0  0  0
 10 35  1  0  0  0
 10 36  1  0  0  0
 11 12  1  0  0  0
 11 37  1  0  0  0
 11 38  1  0  0  0
 12 13  1  0  0  0
 12 39  1  0  0  0
 12 40  1  0  0  0
 13 14  1  0  0  0
 13 41  1  0  0  0
 13 42  1  0  0  0
 14 21  1  0  0  0
 14 23  2  0  0  0
 15 16  1  0  0  0
 15 20  2  0  0  0
 16 17  2  0  0  0
 17 18  1  0  0  0
 17 43  1  0  0  0
 18 19  2  0  0  0
 18 44  1  0  0  0
 19 20  1  0  0  0
 19 45  1  0  0  0
 20 46  1  0  0  0
 21 22  1  0  0  0
 21 47  1  0  0  0
 22 48  1  0  0  0
M  END
> <s_m_entry_id>
53009

> <s_m_entry_name>
dock_pv.228

> <s_m_Source_Path>
/home/csk/Desktop/cluster/DUD-E-result/hdac8

> <s_m_Source_File>
dock_pv.maegz

> <i_m_Source_File_Index>
228

> <chembl_id>
CHEMBL2235263

> <chembl_pref_name>
None

> <i_lp_mmshare_version>
53161

> <i_f3d_flags>
0

> <r_lp_tautomer_probability>
1

> <s_lp_Force_Field>
OPLS_2005

> <r_lp_Energy>
17.400187

> <b_lp_Chiralities_Consistent>
1

> <s_lp_Variant>
CHEMBL3192_lig462-1

> <s_i_glide_gridfile>
glide-grid_3f07

> <i_i_glide_lignum>
483

> <i_i_glide_rotatable_bonds>
11

> <r_i_docking_score>
-7.50119892591139

> <r_i_glide_ligand_efficiency>
-0.326139083735278

> <r_i_glide_ligand_efficiency_sa>
-0.927496170104415

> <r_i_glide_ligand_efficiency_ln>
-1.81385791739671

> <r_i_glide_gscore>
-7.50119892591139

> <r_i_glide_lipo>
-1.44280978523674

> <r_i_glide_hbond>
-0.229403427515889

> <r_i_glide_metal>
-2.3

> <r_i_glide_rewards>
-1.39179647052982

> <r_i_glide_evdw>
-30.9035739898682

> <r_i_glide_ecoul>
-14.7534227371216

> <r_i_glide_erotb>
1.7210028674327

> <r_i_glide_esite>
-0.1

> <r_i_glide_emodel>
-67.7144110168821

> <r_i_glide_energy>
-45.6569967269897

> <r_i_glide_einternal>
5.96225357055664

> <i_i_glide_confnum>
23

> <i_i_glide_posenum>
354

> <r_i_glide_eff_state_penalty>
0

> <s_user_duplicate_titles>
CHEMBL3192_lig462

> <s_m_subgroup_title>
dock_pv

> <s_m_subgroupid>
dock_pv

> <b_m_subgroup_collapsed>
1

$$$$
CHEMBL3192_lig948
                    3D
 Schrodinger Suite 2021-1.
 43 45  0  0  1  0            999 V2000
  -22.2966   32.0855  -43.9980 C   0  0  0  0  0  0
  -20.9464   32.0690  -43.6647 C   0  0  0  0  0  0
  -20.5414   31.8589  -42.3496 C   0  0  0  0  0  0
  -23.2713   31.9047  -43.0202 C   0  0  0  0  0  0
  -22.8958   31.7016  -41.6619 C   0  0  0  0  0  0
  -21.5043   31.6697  -41.3313 C   0  0  0  0  0  0
  -21.0721   31.4538  -40.0588 N   0  0  0  0  0  0
  -22.0292   31.2690  -39.1206 C   0  0  0  0  0  0
  -23.3665   31.2690  -39.3128 N   0  0  0  0  0  0
  -23.8076   31.4998  -40.5737 C   0  0  0  0  0  0
  -21.5463   31.0329  -37.7044 C   0  0  0  0  0  0
  -25.2074   31.5479  -40.7896 N   0  0  0  0  0  0
  -26.2288   30.6965  -40.2919 C   0  0  0  0  0  0
  -25.6410   32.9451  -40.9582 C   0  0  0  0  0  0
  -27.4445   30.6213  -40.9863 C   0  0  0  0  0  0
  -28.4374   29.7272  -40.5998 C   0  0  0  0  0  0
  -28.2407   28.8796  -39.5142 C   0  0  0  0  0  0
  -27.0483   28.9665  -38.7911 C   0  0  0  0  0  0
  -26.0538   29.8577  -39.1813 C   0  0  0  0  0  0
  -29.2499   27.9782  -39.2509 O   0  0  0  0  0  0
  -29.2082   27.1715  -38.0700 C   0  0  0  0  0  0
  -30.3004   26.0993  -38.1686 C   0  0  0  0  0  0
  -30.4320   25.2690  -37.1206 N   0  0  0  0  0  0
  -31.0130   26.0690  -39.1810 O   0  0  0  0  0  0
  -31.4130   24.2662  -37.1810 O   0  0  0  0  0  0
  -22.5886   32.2389  -45.0267 H   0  0  0  0  0  0
  -20.2050   32.2032  -44.4392 H   0  0  0  0  0  0
  -19.4907   31.8355  -42.0988 H   0  0  0  0  0  0
  -24.3164   31.9163  -43.2940 H   0  0  0  0  0  0
  -20.9246   31.8680  -37.3802 H   0  0  0  0  0  0
  -22.3751   30.9435  -37.0010 H   0  0  0  0  0  0
  -20.9496   30.1222  -37.6534 H   0  0  0  0  0  0
  -24.9243   33.5428  -41.5233 H   0  0  0  0  0  0
  -26.5974   33.0458  -41.4683 H   0  0  0  0  0  0
  -25.7402   33.4200  -39.9811 H   0  0  0  0  0  0
  -27.6113   31.2191  -41.8693 H   0  0  0  0  0  0
  -29.3532   29.6692  -41.1695 H   0  0  0  0  0  0
  -26.8566   28.3273  -37.9469 H   0  0  0  0  0  0
  -25.1465   29.8516  -38.6029 H   0  0  0  0  0  0
  -29.4130   27.7948  -37.1977 H   0  0  0  0  0  0
  -28.2447   26.6762  -37.9810 H   0  0  0  0  0  0
  -29.8764   25.2354  -36.2754 H   0  0  0  0  0  0
  -30.9066   23.4633  -37.3605 H   0  0  0  0  0  0
  1  2  2  0  0  0
  1  4  1  0  0  0
  1 26  1  0  0  0
  2  3  1  0  0  0
  2 27  1  0  0  0
  3  6  2  0  0  0
  3 28  1  0  0  0
  4  5  2  0  0  0
  4 29  1  0  0  0
  5  6  1  0  0  0
  5 10  1  0  0  0
  6  7  1  0  0  0
  7  8  2  0  0  0
  8  9  1  0  0  0
  8 11  1  0  0  0
  9 10  2  0  0  0
 10 12  1  0  0  0
 11 30  1  0  0  0
 11 31  1  0  0  0
 11 32  1  0  0  0
 12 13  1  0  0  0
 12 14  1  0  0  0
 13 15  2  0  0  0
 13 19  1  0  0  0
 14 33  1  0  0  0
 14 34  1  0  0  0
 14 35  1  0  0  0
 15 16  1  0  0  0
 15 36  1  0  0  0
 16 17  2  0  0  0
 16 37  1  0  0  0
 17 18  1  0  0  0
 17 20  1  0  0  0
 18 19  2  0  0  0
 18 38  1  0  0  0
 19 39  1  0  0  0
 20 21  1  0  0  0
 21 22  1  0  0  0
 21 40  1  0  0  0
 21 41  1  0  0  0
 22 23  1  0  0  0
 22 24  2  0  0  0
 23 25  1  0  0  0
 23 42  1  0  0  0
 25 43  1  0  0  0
M  END
> <s_m_entry_id>
53010

> <s_m_entry_name>
dock_pv.229

> <s_m_Source_Path>
/home/csk/Desktop/cluster/DUD-E-result/hdac8

> <s_m_Source_File>
dock_pv.maegz

> <i_m_Source_File_Index>
229

> <chembl_id>
CHEMBL3775521

> <chembl_pref_name>
None

> <i_lp_mmshare_version>
53161

> <i_f3d_flags>
0

> <r_lp_tautomer_probability>
1

> <s_lp_Force_Field>
OPLS_2005

> <r_lp_Energy>
28.826912

> <b_lp_Chiralities_Consistent>
1

> <s_lp_Variant>
CHEMBL3192_lig948-1

> <s_i_glide_gridfile>
glide-grid_3f07

> <i_i_glide_lignum>
1009

> <i_i_glide_rotatable_bonds>
7

> <r_i_docking_score>
-7.50104794349629

> <r_i_glide_ligand_efficiency>
-0.300041917739852

> <r_i_glide_ligand_efficiency_sa>
-0.877327888737396

> <r_i_glide_ligand_efficiency_ln>
-1.77797315087619

> <r_i_glide_gscore>
-7.50104794349629

> <r_i_glide_lipo>
-1.10196792757477

> <r_i_glide_hbond>
-0.422143491416996

> <r_i_glide_metal>
-2.3

> <r_i_glide_rewards>
-0.524161096405066

> <r_i_glide_evdw>
-34.7275085449219

> <r_i_glide_ecoul>
-14.9063816070557

> <r_i_glide_erotb>
0.991074307291441

> <r_i_glide_esite>
-0.171517067086457

> <r_i_glide_emodel>
-71.5505081510885

> <r_i_glide_energy>
-49.6338901519775

> <r_i_glide_einternal>
3.82937526702881

> <i_i_glide_confnum>
6

> <i_i_glide_posenum>
302

> <r_i_glide_eff_state_penalty>
0

> <s_user_duplicate_titles>
CHEMBL3192_lig948

> <s_m_subgroup_title>
dock_pv

> <s_m_subgroupid>
dock_pv

> <b_m_subgroup_collapsed>
1

$$$$
CHEMBL3192_lig1040
                    3D
 Schrodinger Suite 2021-1.
 47 50  0  0  1  0            999 V2000
  -30.2139   25.5195  -37.3450 O   0  0  0  0  0  0
  -29.4130   26.6534  -37.5810 N   0  0  0  0  0  0
  -29.4097   27.1946  -38.8029 C   0  0  0  0  0  0
  -30.2515   26.8690  -39.6340 O   0  0  0  0  0  0
  -28.3800   28.2686  -39.0924 C   0  0  0  0  0  0
  -27.1921   28.2875  -38.3810 C   0  0  0  0  0  0
  -26.2348   29.2700  -38.5716 C   0  0  0  0  0  0
  -26.3974   30.2550  -39.5295 C   0  0  0  0  0  0
  -25.2756   31.2761  -39.7289 C   0  0  0  0  0  0
  -25.7084   32.4708  -40.5975 C   0  0  0  0  0  0
  -26.4866   32.0108  -41.8379 C   0  0  2  0  0  0
  -27.7704   31.2742  -41.4078 C   0  0  0  0  0  0
  -27.5667   30.2315  -40.3191 C   0  0  0  0  0  0
  -28.5528   29.2562  -40.0738 C   0  0  0  0  0  0
  -25.6361   31.1392  -42.6555 N   0  0  0  0  0  0
  -25.4820   31.2874  -44.0393 C   0  0  0  0  0  0
  -24.3953   30.6713  -44.5676 N   0  0  0  0  0  0
  -24.1531   30.8971  -45.8828 C   0  0  0  0  0  0
  -24.9975   31.6717  -46.6783 C   0  0  0  0  0  0
  -26.1377   32.2221  -46.0750 C   0  0  0  0  0  0
  -26.3671   32.0470  -44.7415 N   0  0  0  0  0  0
  -27.1367   33.0643  -46.8130 C   0  0  0  0  0  0
  -27.7008   34.1792  -46.1670 C   0  0  0  0  0  0
  -28.6225   35.0069  -46.8059 C   0  0  0  0  0  0
  -29.0035   34.7378  -48.1157 C   0  0  0  0  0  0
  -28.4699   33.6345  -48.7760 C   0  0  0  0  0  0
  -27.5509   32.7963  -48.1388 C   0  0  0  0  0  0
  -27.0115   31.4107  -49.0303 Cl  0  0  0  0  0  0
  -29.5833   24.7912  -37.2890 H   0  0  0  0  0  0
  -28.8078   26.8951  -36.8015 H   0  0  0  0  0  0
  -27.0129   27.5392  -37.6240 H   0  0  0  0  0  0
  -25.3291   29.2524  -37.9829 H   0  0  0  0  0  0
  -24.9154   31.6404  -38.7655 H   0  0  0  0  0  0
  -24.4266   30.7729  -40.1928 H   0  0  0  0  0  0
  -26.3292   33.1441  -40.0035 H   0  0  0  0  0  0
  -24.8350   33.0585  -40.8844 H   0  0  0  0  0  0
  -26.7808   32.8821  -42.4255 H   0  0  0  0  0  0
  -28.2128   30.8012  -42.2786 H   0  0  0  0  0  0
  -28.4897   32.0054  -41.0405 H   0  0  0  0  0  0
  -29.4570   29.2684  -40.6662 H   0  0  0  0  0  0
  -25.0527   30.4708  -42.1758 H   0  0  0  0  0  0
  -23.2509   30.4690  -46.2935 H   0  0  0  0  0  0
  -24.7555   31.8484  -47.7152 H   0  0  0  0  0  0
  -27.4132   34.4212  -45.1538 H   0  0  0  0  0  0
  -29.0397   35.8572  -46.2851 H   0  0  0  0  0  0
  -29.7251   35.3704  -48.6125 H   0  0  0  0  0  0
  -28.7879   33.4138  -49.7840 H   0  0  0  0  0  0
  1  2  1  0  0  0
  1 29  1  0  0  0
  2  3  1  0  0  0
  2 30  1  0  0  0
  3  4  2  0  0  0
  3  5  1  0  0  0
  5  6  2  0  0  0
  5 14  1  0  0  0
  6  7  1  0  0  0
  6 31  1  0  0  0
  7  8  2  0  0  0
  7 32  1  0  0  0
  8  9  1  0  0  0
  8 13  1  0  0  0
  9 10  1  0  0  0
  9 33  1  0  0  0
  9 34  1  0  0  0
 10 11  1  0  0  0
 10 35  1  0  0  0
 10 36  1  0  0  0
 11 12  1  0  0  0
 11 15  1  0  0  0
 11 37  1  0  0  0
 12 13  1  0  0  0
 12 38  1  0  0  0
 12 39  1  0  0  0
 13 14  2  0  0  0
 14 40  1  0  0  0
 15 16  1  0  0  0
 15 41  1  0  0  0
 16 17  2  0  0  0
 16 21  1  0  0  0
 17 18  1  0  0  0
 18 19  2  0  0  0
 18 42  1  0  0  0
 19 20  1  0  0  0
 19 43  1  0  0  0
 20 21  2  0  0  0
 20 22  1  0  0  0
 22 23  2  0  0  0
 22 27  1  0  0  0
 23 24  1  0  0  0
 23 44  1  0  0  0
 24 25  2  0  0  0
 24 45  1  0  0  0
 25 26  1  0  0  0
 25 46  1  0  0  0
 26 27  2  0  0  0
 26 47  1  0  0  0
 27 28  1  0  0  0
M  END
> <s_m_entry_id>
53011

> <s_m_entry_name>
dock_pv.230

> <s_m_Source_Path>
/home/csk/Desktop/cluster/DUD-E-result/hdac8

> <s_m_Source_File>
dock_pv.maegz

> <i_m_Source_File_Index>
230

> <chembl_id>
CHEMBL3357481

> <chembl_pref_name>
None

> <i_lp_mmshare_version>
53161

> <i_f3d_flags>
0

> <r_lp_tautomer_probability>
0.999999987636

> <s_lp_Force_Field>
OPLS_2005

> <r_lp_Energy>
24.929387

> <b_lp_Chiralities_Consistent>
1

> <s_lp_Variant>
CHEMBL3192_lig1040-1

> <s_i_glide_gridfile>
glide-grid_3f07

> <i_i_glide_lignum>
1119

> <i_i_glide_rotatable_bonds>
6

> <r_i_docking_score>
-7.49229765224822

> <r_i_glide_ligand_efficiency>
-0.267582059008865

> <r_i_glide_ligand_efficiency_sa>
-0.812536728555589

> <r_i_glide_ligand_efficiency_ln>
-1.72944228155684

> <r_i_glide_gscore>
-7.49229765224822

> <r_i_glide_lipo>
-1.28947863364882

> <r_i_glide_hbond>
-0.608

> <r_i_glide_metal>
-1.84438266743024

> <r_i_glide_rewards>
-0.978897789820675

> <r_i_glide_evdw>
-24.6845455169678

> <r_i_glide_ecoul>
-13.0949773788452

> <r_i_glide_erotb>
0.626935321326681

> <r_i_glide_esite>
-0.2

> <r_i_glide_emodel>
-54.5803236250121

> <r_i_glide_energy>
-37.779522895813

> <r_i_glide_einternal>
2.62898731231689

> <i_i_glide_confnum>
53

> <i_i_glide_posenum>
229

> <r_i_glide_eff_state_penalty>
0

> <s_user_duplicate_titles>
CHEMBL3192_lig1040

> <s_m_subgroup_title>
dock_pv

> <s_m_subgroupid>
dock_pv

> <b_m_subgroup_collapsed>
1

$$$$
CHEMBL3192_lig738
                    3D
 Schrodinger Suite 2021-1.
 42 43  0  0  1  0            999 V2000
  -25.8022   30.4189  -39.8298 C   0  0  0  0  0  0
  -27.1198   29.6472  -40.0497 C   0  0  0  0  0  0
  -27.4728   28.7068  -38.8805 C   0  0  0  0  0  0
  -28.6767   27.7936  -39.1765 C   0  0  0  0  0  0
  -29.3442   27.2434  -37.8943 C   0  0  0  0  0  0
  -30.3578   26.1127  -38.1130 C   0  0  0  0  0  0
  -30.5221   25.2559  -37.0924 N   0  0  0  0  0  0
  -30.9809   26.0690  -39.1810 O   0  0  0  0  0  0
  -31.4130   24.1857  -37.2503 O   0  0  0  0  0  0
  -25.6431   31.6857  -40.6991 C   0  0  0  0  0  0
  -25.7730   31.4532  -42.1930 C   0  0  0  0  0  0
  -26.5022   32.1268  -43.0386 N   0  0  0  0  0  0
  -26.2130   31.5516  -44.1948 C   0  0  0  0  0  0
  -25.3687   30.5391  -44.1274 N   0  0  0  0  0  0
  -25.0471   30.4690  -42.7728 O   0  0  0  0  0  0
  -26.8024   32.0323  -45.4973 C   0  0  0  0  0  0
  -27.6651   33.1380  -45.5170 C   0  0  0  0  0  0
  -28.2129   33.5985  -46.7109 C   0  0  0  0  0  0
  -27.9020   32.9643  -47.9093 C   0  0  0  0  0  0
  -27.0439   31.8566  -47.9310 C   0  0  0  0  0  0
  -26.5047   31.3999  -46.7161 C   0  0  0  0  0  0
  -26.7340   31.1796  -49.2131 N   0  3  0  0  0  0
  -27.0131   31.7521  -50.2625 O   0  0  0  0  0  0
  -26.2129   30.0690  -49.1810 O   0  5  0  0  0  0
  -25.7283   30.7228  -38.7837 H   0  0  0  0  0  0
  -24.9589   29.7468  -39.9975 H   0  0  0  0  0  0
  -27.0482   29.0777  -40.9780 H   0  0  0  0  0  0
  -27.9401   30.3531  -40.1891 H   0  0  0  0  0  0
  -27.6727   29.3071  -37.9931 H   0  0  0  0  0  0
  -26.6134   28.0864  -38.6256 H   0  0  0  0  0  0
  -28.3183   26.9709  -39.7957 H   0  0  0  0  0  0
  -29.4130   28.3413  -39.7660 H   0  0  0  0  0  0
  -29.8130   28.0565  -37.3415 H   0  0  0  0  0  0
  -28.5818   26.8690  -37.2302 H   0  0  0  0  0  0
  -30.0307   25.2412  -36.2083 H   0  0  0  0  0  0
  -30.8352   23.4296  -37.4189 H   0  0  0  0  0  0
  -26.3703   32.4299  -40.3718 H   0  0  0  0  0  0
  -24.6702   32.1318  -40.4876 H   0  0  0  0  0  0
  -27.9194   33.6516  -44.6014 H   0  0  0  0  0  0
  -28.8823   34.4466  -46.7091 H   0  0  0  0  0  0
  -28.3465   33.3335  -48.8233 H   0  0  0  0  0  0
  -25.8416   30.5463  -46.7199 H   0  0  0  0  0  0
  1  2  1  0  0  0
  1 10  1  0  0  0
  1 25  1  0  0  0
  1 26  1  0  0  0
  2  3  1  0  0  0
  2 27  1  0  0  0
  2 28  1  0  0  0
  3  4  1  0  0  0
  3 29  1  0  0  0
  3 30  1  0  0  0
  4  5  1  0  0  0
  4 31  1  0  0  0
  4 32  1  0  0  0
  5  6  1  0  0  0
  5 33  1  0  0  0
  5 34  1  0  0  0
  6  7  1  0  0  0
  6  8  2  0  0  0
  7  9  1  0  0  0
  7 35  1  0  0  0
  9 36  1  0  0  0
 10 11  1  0  0  0
 10 37  1  0  0  0
 10 38  1  0  0  0
 11 12  2  0  0  0
 11 15  1  0  0  0
 12 13  1  0  0  0
 13 14  2  0  0  0
 13 16  1  0  0  0
 14 15  1  0  0  0
 16 17  2  0  0  0
 16 21  1  0  0  0
 17 18  1  0  0  0
 17 39  1  0  0  0
 18 19  2  0  0  0
 18 40  1  0  0  0
 19 20  1  0  0  0
 19 41  1  0  0  0
 20 21  2  0  0  0
 20 22  1  0  0  0
 21 42  1  0  0  0
 22 23  2  0  0  0
 22 24  1  0  0  0
M  CHG  2  22   1  24  -1
M  END
> <s_m_entry_id>
53012

> <s_m_entry_name>
dock_pv.231

> <s_m_Source_Path>
/home/csk/Desktop/cluster/DUD-E-result/hdac8

> <s_m_Source_File>
dock_pv.maegz

> <i_m_Source_File_Index>
231

> <chembl_id>
CHEMBL3585966

> <chembl_pref_name>
None

> <i_lp_mmshare_version>
53161

> <i_f3d_flags>
0

> <r_lp_tautomer_probability>
1

> <s_lp_Force_Field>
OPLS_2005

> <r_lp_Energy>
17.435472

> <b_lp_Chiralities_Consistent>
1

> <s_lp_Variant>
CHEMBL3192_lig738-1

> <s_i_glide_gridfile>
glide-grid_3f07

> <i_i_glide_lignum>
789

> <i_i_glide_rotatable_bonds>
11

> <r_i_docking_score>
-7.48271106810788

> <r_i_glide_ligand_efficiency>
-0.311779627837828

> <r_i_glide_ligand_efficiency_sa>
-0.899328067606718

> <r_i_glide_ligand_efficiency_ln>
-1.79095611783554

> <r_i_glide_gscore>
-7.48271106810788

> <r_i_glide_lipo>
-1.1867294446036

> <r_i_glide_hbond>
-0.231939921857382

> <r_i_glide_metal>
-2.3

> <r_i_glide_rewards>
-1.12953252489305

> <r_i_glide_evdw>
-32.7232131958008

> <r_i_glide_ecoul>
-15.4592866897583

> <r_i_glide_erotb>
1.518517525469

> <r_i_glide_esite>
-0.197973038969053

> <r_i_glide_emodel>
-72.2126548396608

> <r_i_glide_energy>
-48.1824998855591

> <r_i_glide_einternal>
6.37301826477051

> <i_i_glide_confnum>
69

> <i_i_glide_posenum>
353

> <r_i_glide_eff_state_penalty>
0

> <s_user_duplicate_titles>
CHEMBL3192_lig738

> <s_m_subgroup_title>
dock_pv

> <s_m_subgroupid>
dock_pv

> <b_m_subgroup_collapsed>
1

$$$$
CHEMBL3192_lig532
                    3D
 Schrodinger Suite 2021-1.
 38 39  0  0  1  0            999 V2000
  -27.7025   34.0854  -44.0034 C   0  0  0  0  0  0
  -27.8534   35.0872  -43.0416 C   0  0  0  0  0  0
  -27.3087   34.9688  -41.7601 C   0  0  0  0  0  0
  -27.0096   32.9052  -43.7230 C   0  0  0  0  0  0
  -26.4641   32.7489  -42.4406 C   0  0  0  0  0  0
  -26.6154   33.7876  -41.4846 C   0  0  0  0  0  0
  -25.9513   33.3116  -40.3810 N   0  0  0  0  0  0
  -25.4725   32.0638  -40.6960 C   0  0  0  0  0  0
  -25.7635   31.6916  -41.9187 N   0  0  0  0  0  0
  -24.6774   31.2467  -39.7014 C   0  0  0  0  0  0
  -25.4728   30.8317  -38.4418 C   0  0  0  0  0  0
  -26.3807   29.5965  -38.6057 C   0  0  0  0  0  0
  -27.7129   29.7931  -39.3469 C   0  0  0  0  0  0
  -28.4459   28.4610  -39.6204 C   0  0  0  0  0  0
  -28.7531   27.6044  -38.3593 C   0  0  0  0  0  0
  -29.8130   26.5032  -38.5432 C   0  0  0  0  0  0
  -30.0326   25.6690  -37.5152 N   0  0  0  0  0  0
  -30.4841   26.4690  -39.5810 O   0  0  0  0  0  0
  -31.0130   24.6702  -37.6630 O   0  0  0  0  0  0
  -28.8293   36.6587  -43.4863 Br  0  0  0  0  0  0
  -28.1372   34.2251  -44.9830 H   0  0  0  0  0  0
  -27.4130   35.7573  -41.0289 H   0  0  0  0  0  0
  -26.9041   32.1310  -44.4688 H   0  0  0  0  0  0
  -25.7831   33.7429  -39.4728 H   0  0  0  0  0  0
  -23.8178   31.8393  -39.3825 H   0  0  0  0  0  0
  -24.2453   30.3625  -40.1726 H   0  0  0  0  0  0
  -26.0384   31.6690  -38.0345 H   0  0  0  0  0  0
  -24.7348   30.5921  -37.6747 H   0  0  0  0  0  0
  -26.6130   29.2052  -37.6168 H   0  0  0  0  0  0
  -25.8130   28.8236  -39.1125 H   0  0  0  0  0  0
  -27.5357   30.2857  -40.3021 H   0  0  0  0  0  0
  -28.3578   30.4657  -38.7810 H   0  0  0  0  0  0
  -27.8364   27.8714  -40.3079 H   0  0  0  0  0  0
  -29.3654   28.7049  -40.1552 H   0  0  0  0  0  0
  -29.1309   28.2666  -37.5810 H   0  0  0  0  0  0
  -27.8326   27.1598  -37.9810 H   0  0  0  0  0  0
  -29.5557   25.6372  -36.6234 H   0  0  0  0  0  0
  -30.5011   23.8489  -37.6914 H   0  0  0  0  0  0
  1  2  2  0  0  0
  1  4  1  0  0  0
  1 21  1  0  0  0
  2  3  1  0  0  0
  2 20  1  0  0  0
  3  6  2  0  0  0
  3 22  1  0  0  0
  4  5  2  0  0  0
  4 23  1  0  0  0
  5  6  1  0  0  0
  5  9  1  0  0  0
  6  7  1  0  0  0
  7  8  1  0  0  0
  7 24  1  0  0  0
  8  9  2  0  0  0
  8 10  1  0  0  0
 10 11  1  0  0  0
 10 25  1  0  0  0
 10 26  1  0  0  0
 11 12  1  0  0  0
 11 27  1  0  0  0
 11 28  1  0  0  0
 12 13  1  0  0  0
 12 29  1  0  0  0
 12 30  1  0  0  0
 13 14  1  0  0  0
 13 31  1  0  0  0
 13 32  1  0  0  0
 14 15  1  0  0  0
 14 33  1  0  0  0
 14 34  1  0  0  0
 15 16  1  0  0  0
 15 35  1  0  0  0
 15 36  1  0  0  0
 16 17  1  0  0  0
 16 18  2  0  0  0
 17 19  1  0  0  0
 17 37  1  0  0  0
 19 38  1  0  0  0
M  END
> <s_m_entry_id>
53013

> <s_m_entry_name>
dock_pv.232

> <s_m_Source_Path>
/home/csk/Desktop/cluster/DUD-E-result/hdac8

> <s_m_Source_File>
dock_pv.maegz

> <i_m_Source_File_Index>
232

> <chembl_id>
CHEMBL2414098

> <chembl_pref_name>
None

> <i_lp_mmshare_version>
53161

> <i_f3d_flags>
0

> <r_lp_tautomer_probability>
1

> <s_lp_Force_Field>
OPLS_2005

> <r_lp_Energy>
9.596656

> <b_lp_Chiralities_Consistent>
1

> <s_lp_Variant>
CHEMBL3192_lig532-1

> <s_i_glide_gridfile>
glide-grid_3f07

> <i_i_glide_lignum>
553

> <i_i_glide_rotatable_bonds>
9

> <r_i_docking_score>
-7.48263384223152

> <r_i_glide_ligand_efficiency>
-0.374131692111576

> <r_i_glide_ligand_efficiency_sa>
-1.01554965498002

> <r_i_glide_ligand_efficiency_ln>
-1.87265645692926

> <r_i_glide_gscore>
-7.48263384223152

> <r_i_glide_lipo>
-0.628962812244681

> <r_i_glide_hbond>
-0.432

> <r_i_glide_metal>
-2.3

> <r_i_glide_rewards>
-1.18101070161429

> <r_i_glide_evdw>
-20.2282371520996

> <r_i_glide_ecoul>
-18.7320747375488

> <r_i_glide_erotb>
1.14510266893498

> <r_i_glide_esite>
-0.264539929070229

> <r_i_glide_emodel>
-60.8792605853892

> <r_i_glide_energy>
-38.9603118896484

> <r_i_glide_einternal>
6.67868280410767

> <i_i_glide_confnum>
5

> <i_i_glide_posenum>
400

> <r_i_glide_eff_state_penalty>
0

> <s_user_duplicate_titles>
CHEMBL3192_lig532

> <s_m_subgroup_title>
dock_pv

> <s_m_subgroupid>
dock_pv

> <b_m_subgroup_collapsed>
1

$$$$
CHEMBL3192_lig676
                    3D
 Schrodinger Suite 2021-1.
 40 42  0  0  1  0            999 V2000
  -27.3688   28.7268  -38.3810 C   0  0  0  0  0  0
  -28.5425   28.4678  -39.0967 C   0  0  0  0  0  0
  -28.9231   29.3635  -40.1060 C   0  0  0  0  0  0
  -26.6125   29.8673  -38.6474 C   0  0  0  0  0  0
  -26.9978   30.7497  -39.6538 C   0  0  0  0  0  0
  -28.1575   30.4903  -40.3852 C   0  0  0  0  0  0
  -29.4130   27.2690  -38.7893 C   0  0  0  0  0  0
  -29.4130   26.7826  -37.5532 N   0  0  0  0  0  0
  -30.2211   26.8581  -39.6118 O   0  0  0  0  0  0
  -30.2130   25.6597  -37.2616 O   0  0  0  0  0  0
  -26.2103   31.8916  -39.8893 N   0  0  0  0  0  0
  -25.5475   32.1096  -41.1896 C   0  0  1  0  0  0
  -24.8554   30.8907  -41.7553 C   0  0  0  0  0  0
  -24.9578   31.0992  -43.2470 C   0  0  0  0  0  0
  -26.1120   31.9931  -43.4683 N   0  0  0  0  0  0
  -26.5019   32.5924  -42.2963 C   0  0  0  0  0  0
  -27.4130   33.4005  -42.1033 O   0  0  0  0  0  0
  -26.6803   32.2073  -44.7650 C   0  0  0  0  0  0
  -27.5623   33.2689  -45.0520 C   0  0  0  0  0  0
  -28.1281   33.4105  -46.3165 C   0  0  0  0  0  0
  -27.8129   32.5027  -47.3204 C   0  0  0  0  0  0
  -26.9286   31.4600  -47.0722 C   0  0  0  0  0  0
  -26.3624   31.3177  -45.8081 C   0  0  0  0  0  0
  -27.0326   28.0520  -37.6076 H   0  0  0  0  0  0
  -29.8245   29.2088  -40.6810 H   0  0  0  0  0  0
  -25.7145   30.0543  -38.0765 H   0  0  0  0  0  0
  -28.4887   31.1637  -41.1591 H   0  0  0  0  0  0
  -28.8288   27.0869  -36.7811 H   0  0  0  0  0  0
  -29.5801   24.9371  -37.1808 H   0  0  0  0  0  0
  -25.5904   32.1177  -39.1183 H   0  0  0  0  0  0
  -24.8171   32.9123  -41.0649 H   0  0  0  0  0  0
  -23.8182   30.8038  -41.4282 H   0  0  0  0  0  0
  -25.3564   29.9602  -41.4844 H   0  0  0  0  0  0
  -25.0867   30.1321  -43.7315 H   0  0  0  0  0  0
  -24.0534   31.5643  -43.6425 H   0  0  0  0  0  0
  -27.8301   34.0102  -44.3179 H   0  0  0  0  0  0
  -28.8118   34.2227  -46.5177 H   0  0  0  0  0  0
  -28.2602   32.6062  -48.2989 H   0  0  0  0  0  0
  -26.6902   30.7586  -47.8583 H   0  0  0  0  0  0
  -25.6908   30.4869  -45.6643 H   0  0  0  0  0  0
  1  2  2  0  0  0
  1  4  1  0  0  0
  1 24  1  0  0  0
  2  3  1  0  0  0
  2  7  1  0  0  0
  3  6  2  0  0  0
  3 25  1  0  0  0
  4  5  2  0  0  0
  4 26  1  0  0  0
  5  6  1  0  0  0
  5 11  1  0  0  0
  6 27  1  0  0  0
  7  8  1  0  0  0
  7  9  2  0  0  0
  8 10  1  0  0  0
  8 28  1  0  0  0
 10 29  1  0  0  0
 11 12  1  0  0  0
 11 30  1  0  0  0
 12 13  1  0  0  0
 12 16  1  0  0  0
 12 31  1  0  0  0
 13 14  1  0  0  0
 13 32  1  0  0  0
 13 33  1  0  0  0
 14 15  1  0  0  0
 14 34  1  0  0  0
 14 35  1  0  0  0
 15 16  1  0  0  0
 15 18  1  0  0  0
 16 17  2  0  0  0
 18 19  2  0  0  0
 18 23  1  0  0  0
 19 20  1  0  0  0
 19 36  1  0  0  0
 20 21  2  0  0  0
 20 37  1  0  0  0
 21 22  1  0  0  0
 21 38  1  0  0  0
 22 23  2  0  0  0
 22 39  1  0  0  0
 23 40  1  0  0  0
M  END
> <s_m_entry_id>
53014

> <s_m_entry_name>
dock_pv.233

> <s_m_Source_Path>
/home/csk/Desktop/cluster/DUD-E-result/hdac8

> <s_m_Source_File>
dock_pv.maegz

> <i_m_Source_File_Index>
233

> <chembl_id>
CHEMBL3415446

> <chembl_pref_name>
None

> <i_lp_mmshare_version>
53161

> <i_f3d_flags>
0

> <r_lp_tautomer_probability>
1

> <s_lp_Force_Field>
OPLS_2005

> <r_lp_Energy>
43.377474

> <b_lp_Chiralities_Consistent>
1

> <s_lp_Variant>
CHEMBL3192_lig676-2

> <s_i_glide_gridfile>
glide-grid_3f07

> <i_i_glide_lignum>
704

> <i_i_glide_rotatable_bonds>
6

> <r_i_docking_score>
-7.47967252165574

> <r_i_glide_ligand_efficiency>
-0.325203153115467

> <r_i_glide_ligand_efficiency_sa>
-0.924834507922085

> <r_i_glide_ligand_efficiency_ln>
-1.80865263765705

> <r_i_glide_gscore>
-7.47967252165574

> <r_i_glide_lipo>
-1.74822691999511

> <r_i_glide_hbond>
-0.608

> <r_i_glide_metal>
-1.79693429646421

> <r_i_glide_rewards>
-0.52226089846475

> <r_i_glide_evdw>
-25.757833480835

> <r_i_glide_ecoul>
-14.7397842407227

> <r_i_glide_erotb>
0.956559604046201

> <r_i_glide_esite>
-0.261950700627734

> <r_i_glide_emodel>
-49.8185038890313

> <r_i_glide_energy>
-40.4976177215576

> <r_i_glide_einternal>
12.3121757507324

> <i_i_glide_confnum>
53

> <i_i_glide_posenum>
244

> <r_i_glide_eff_state_penalty>
0

> <s_user_duplicate_titles>
CHEMBL3192_lig676

> <s_m_subgroup_title>
dock_pv

> <s_m_subgroupid>
dock_pv

> <b_m_subgroup_collapsed>
1

$$$$
CHEMBL3192_lig643
                    3D
 Schrodinger Suite 2021-1.
 49 51  0  0  1  0            999 V2000
  -29.7962   26.4690  -38.3446 C   0  0  0  0  0  0
  -28.5686   27.2646  -38.8150 C   0  0  0  0  0  0
  -28.9475   28.6093  -39.4782 C   0  0  0  0  0  0
  -27.7625   29.3601  -40.1102 C   0  0  0  0  0  0
  -26.7677   29.9303  -39.0808 C   0  0  0  0  0  0
  -30.6130   26.0690  -39.1807 O   0  0  0  0  0  0
  -29.9166   26.2794  -37.0223 N   0  0  0  0  0  0
  -31.0292   25.5765  -36.5409 O   0  0  0  0  0  0
  -25.2029   32.7934  -40.5317 N   0  0  0  0  0  0
  -26.2769   32.1164  -40.0896 N   0  0  0  0  0  0
  -25.8219   30.9493  -39.6788 C   0  0  0  0  0  0
  -24.4344   30.8689  -39.8460 C   0  0  0  0  0  0
  -24.0445   32.0781  -40.3815 C   0  0  0  0  0  0
  -25.3160   34.2033  -40.8995 C   0  0  0  0  0  0
  -27.7650   34.4058  -43.8437 C   0  0  0  0  0  0
  -26.6690   34.0656  -43.0356 C   0  0  0  0  0  0
  -26.5352   34.5696  -41.7388 C   0  0  0  0  0  0
  -27.5116   35.4280  -41.2290 C   0  0  0  0  0  0
  -28.6106   35.7749  -42.0124 C   0  0  0  0  0  0
  -28.7343   35.2680  -43.3066 C   0  0  0  0  0  0
  -27.8875   33.8681  -45.2348 C   0  0  0  0  0  0
  -27.3820   32.6001  -45.5629 C   0  0  0  0  0  0
  -27.4836   32.1028  -46.8587 C   0  0  0  0  0  0
  -28.0996   32.8690  -47.8431 C   0  0  0  0  0  0
  -28.6130   34.1251  -47.5405 C   0  0  0  0  0  0
  -28.5060   34.6206  -46.2439 C   0  0  0  0  0  0
  -27.8866   27.4401  -37.9813 H   0  0  0  0  0  0
  -28.0211   26.6385  -39.5208 H   0  0  0  0  0  0
  -29.6933   28.4534  -40.2592 H   0  0  0  0  0  0
  -29.4129   29.2652  -38.7396 H   0  0  0  0  0  0
  -27.2332   28.7082  -40.8066 H   0  0  0  0  0  0
  -28.1686   30.1768  -40.7114 H   0  0  0  0  0  0
  -27.3151   30.4029  -38.2661 H   0  0  0  0  0  0
  -26.2100   29.1157  -38.6162 H   0  0  0  0  0  0
  -29.3101   26.6364  -36.2905 H   0  0  0  0  0  0
  -31.5558   26.2512  -36.1023 H   0  0  0  0  0  0
  -23.7942   30.0453  -39.5690 H   0  0  0  0  0  0
  -23.0800   32.5004  -40.6246 H   0  0  0  0  0  0
  -25.2828   34.7886  -39.9811 H   0  0  0  0  0  0
  -24.4226   34.4770  -41.4624 H   0  0  0  0  0  0
  -25.8940   33.4172  -43.4177 H   0  0  0  0  0  0
  -27.4127   35.8366  -40.2331 H   0  0  0  0  0  0
  -29.3598   36.4484  -41.6228 H   0  0  0  0  0  0
  -29.5984   35.5510  -43.8888 H   0  0  0  0  0  0
  -26.9169   31.9822  -44.8097 H   0  0  0  0  0  0
  -27.0999   31.1227  -47.0988 H   0  0  0  0  0  0
  -28.1937   32.4781  -48.8457 H   0  0  0  0  0  0
  -29.1015   34.7096  -48.3062 H   0  0  0  0  0  0
  -28.9005   35.6039  -46.0357 H   0  0  0  0  0  0
  1  2  1  0  0  0
  1  6  2  0  0  0
  1  7  1  0  0  0
  2  3  1  0  0  0
  2 27  1  0  0  0
  2 28  1  0  0  0
  3  4  1  0  0  0
  3 29  1  0  0  0
  3 30  1  0  0  0
  4  5  1  0  0  0
  4 31  1  0  0  0
  4 32  1  0  0  0
  5 11  1  0  0  0
  5 33  1  0  0  0
  5 34  1  0  0  0
  7  8  1  0  0  0
  7 35  1  0  0  0
  8 36  1  0  0  0
  9 10  1  0  0  0
  9 13  1  0  0  0
  9 14  1  0  0  0
 10 11  2  0  0  0
 11 12  1  0  0  0
 12 13  2  0  0  0
 12 37  1  0  0  0
 13 38  1  0  0  0
 14 17  1  0  0  0
 14 39  1  0  0  0
 14 40  1  0  0  0
 15 16  1  0  0  0
 15 20  2  0  0  0
 15 21  1  0  0  0
 16 17  2  0  0  0
 16 41  1  0  0  0
 17 18  1  0  0  0
 18 19  2  0  0  0
 18 42  1  0  0  0
 19 20  1  0  0  0
 19 43  1  0  0  0
 20 44  1  0  0  0
 21 22  1  0  0  0
 21 26  2  0  0  0
 22 23  2  0  0  0
 22 45  1  0  0  0
 23 24  1  0  0  0
 23 46  1  0  0  0
 24 25  2  0  0  0
 24 47  1  0  0  0
 25 26  1  0  0  0
 25 48  1  0  0  0
 26 49  1  0  0  0
M  END
> <s_m_entry_id>
53015

> <s_m_entry_name>
dock_pv.234

> <s_m_Source_Path>
/home/csk/Desktop/cluster/DUD-E-result/hdac8

> <s_m_Source_File>
dock_pv.maegz

> <i_m_Source_File_Index>
234

> <chembl_id>
CHEMBL3335283

> <chembl_pref_name>
None

> <i_lp_mmshare_version>
53161

> <i_f3d_flags>
0

> <r_lp_tautomer_probability>
1

> <s_lp_Force_Field>
OPLS_2005

> <r_lp_Energy>
17.999723

> <b_lp_Chiralities_Consistent>
1

> <s_lp_Variant>
CHEMBL3192_lig643-1

> <s_i_glide_gridfile>
glide-grid_3f07

> <i_i_glide_lignum>
669

> <i_i_glide_rotatable_bonds>
10

> <r_i_docking_score>
-7.4783042425854

> <r_i_glide_ligand_efficiency>
-0.287627086253285

> <r_i_glide_ligand_efficiency_sa>
-0.852094111267422

> <r_i_glide_ligand_efficiency_ln>
-1.75625521305353

> <r_i_glide_gscore>
-7.4783042425854

> <r_i_glide_lipo>
-1.05223120192197

> <r_i_glide_hbond>
-0.529916005071288

> <r_i_glide_metal>
-2.3

> <r_i_glide_rewards>
-1.09330605585296

> <r_i_glide_evdw>
-31.4723014831543

> <r_i_glide_ecoul>
-14.2351016998291

> <r_i_glide_erotb>
1.40408919606343

> <r_i_glide_esite>
-0.198059846670534

> <r_i_glide_emodel>
-69.8435506909884

> <r_i_glide_energy>
-45.7074031829834

> <r_i_glide_einternal>
3.28254961967468

> <i_i_glide_confnum>
203

> <i_i_glide_posenum>
178

> <r_i_glide_eff_state_penalty>
0

> <s_user_duplicate_titles>
CHEMBL3192_lig643

> <s_m_subgroup_title>
dock_pv

> <s_m_subgroupid>
dock_pv

> <b_m_subgroup_collapsed>
1

$$$$
CHEMBL3192_lig1055
                    3D
 Schrodinger Suite 2021-1.
 46 49  0  0  1  0            999 V2000
  -30.2185   25.5069  -37.3483 O   0  0  0  0  0  0
  -29.4130   26.6382  -37.5810 N   0  0  0  0  0  0
  -29.4130   27.1870  -38.8006 C   0  0  0  0  0  0
  -30.2559   26.8690  -39.6320 O   0  0  0  0  0  0
  -28.3865   28.2645  -39.0863 C   0  0  0  0  0  0
  -27.1958   28.2783  -38.3809 C   0  0  0  0  0  0
  -26.2449   29.2691  -38.5626 C   0  0  0  0  0  0
  -26.4148   30.2654  -39.5055 C   0  0  0  0  0  0
  -25.3023   31.2990  -39.6903 C   0  0  0  0  0  0
  -25.7522   32.5085  -40.5265 C   0  0  0  0  0  0
  -26.5272   32.0679  -41.7745 C   0  0  2  0  0  0
  -27.7992   31.2974  -41.3668 C   0  0  0  0  0  0
  -27.5866   30.2448  -40.2914 C   0  0  0  0  0  0
  -28.5672   29.2612  -40.0565 C   0  0  0  0  0  0
  -25.6669   31.2308  -42.6184 N   0  0  0  0  0  0
  -25.5773   31.3699  -44.0095 C   0  0  0  0  0  0
  -24.5451   30.7092  -44.5931 N   0  0  0  0  0  0
  -24.3666   30.9191  -45.9218 C   0  0  0  0  0  0
  -25.2116   31.7386  -46.6715 C   0  0  0  0  0  0
  -26.2719   32.3591  -45.9987 C   0  0  0  0  0  0
  -26.4619   32.1699  -44.6644 N   0  0  0  0  0  0
  -27.2384   33.2487  -46.7087 C   0  0  0  0  0  0
  -27.7260   32.8586  -47.9661 C   0  0  0  0  0  0
  -28.6129   33.6701  -48.6694 C   0  0  0  0  0  0
  -29.0130   34.8703  -48.0900 C   0  0  0  0  0  0
  -28.5666   35.2811  -46.8801 N   0  0  0  0  0  0
  -27.6905   34.4906  -46.2058 C   0  0  0  0  0  0
  -27.1252   35.1385  -44.7028 Cl  0  0  0  0  0  0
  -29.5921   24.7745  -37.3012 H   0  0  0  0  0  0
  -28.8107   26.8787  -36.7993 H   0  0  0  0  0  0
  -27.0128   27.5222  -37.6328 H   0  0  0  0  0  0
  -25.3354   29.2466  -37.9813 H   0  0  0  0  0  0
  -24.9396   31.6480  -38.7219 H   0  0  0  0  0  0
  -24.4522   30.8137  -40.1712 H   0  0  0  0  0  0
  -26.3809   33.1579  -39.9150 H   0  0  0  0  0  0
  -24.8875   33.1141  -40.8028 H   0  0  0  0  0  0
  -26.8374   32.9509  -42.3360 H   0  0  0  0  0  0
  -28.2130   30.8222  -42.2500 H   0  0  0  0  0  0
  -28.5429   32.0046  -41.0013 H   0  0  0  0  0  0
  -29.4725   29.2765  -40.6468 H   0  0  0  0  0  0
  -25.0903   30.5384  -42.1654 H   0  0  0  0  0  0
  -23.5141   30.4421  -46.3812 H   0  0  0  0  0  0
  -25.0401   31.8981  -47.7252 H   0  0  0  0  0  0
  -27.4303   31.9151  -48.4015 H   0  0  0  0  0  0
  -28.9991   33.3622  -49.6298 H   0  0  0  0  0  0
  -29.7177   35.5190  -48.5911 H   0  0  0  0  0  0
  1  2  1  0  0  0
  1 29  1  0  0  0
  2  3  1  0  0  0
  2 30  1  0  0  0
  3  4  2  0  0  0
  3  5  1  0  0  0
  5  6  2  0  0  0
  5 14  1  0  0  0
  6  7  1  0  0  0
  6 31  1  0  0  0
  7  8  2  0  0  0
  7 32  1  0  0  0
  8  9  1  0  0  0
  8 13  1  0  0  0
  9 10  1  0  0  0
  9 33  1  0  0  0
  9 34  1  0  0  0
 10 11  1  0  0  0
 10 35  1  0  0  0
 10 36  1  0  0  0
 11 12  1  0  0  0
 11 15  1  0  0  0
 11 37  1  0  0  0
 12 13  1  0  0  0
 12 38  1  0  0  0
 12 39  1  0  0  0
 13 14  2  0  0  0
 14 40  1  0  0  0
 15 16  1  0  0  0
 15 41  1  0  0  0
 16 17  2  0  0  0
 16 21  1  0  0  0
 17 18  1  0  0  0
 18 19  2  0  0  0
 18 42  1  0  0  0
 19 20  1  0  0  0
 19 43  1  0  0  0
 20 21  2  0  0  0
 20 22  1  0  0  0
 22 23  2  0  0  0
 22 27  1  0  0  0
 23 24  1  0  0  0
 23 44  1  0  0  0
 24 25  2  0  0  0
 24 45  1  0  0  0
 25 26  1  0  0  0
 25 46  1  0  0  0
 26 27  2  0  0  0
 27 28  1  0  0  0
M  END
> <s_m_entry_id>
53016

> <s_m_entry_name>
dock_pv.235

> <s_m_Source_Path>
/home/csk/Desktop/cluster/DUD-E-result/hdac8

> <s_m_Source_File>
dock_pv.maegz

> <i_m_Source_File_Index>
235

> <chembl_id>
CHEMBL3694303

> <chembl_pref_name>
None

> <i_lp_mmshare_version>
53161

> <i_f3d_flags>
0

> <r_lp_tautomer_probability>
0.999999987636

> <s_lp_Force_Field>
OPLS_2005

> <r_lp_Energy>
24.908866

> <b_lp_Chiralities_Consistent>
1

> <s_lp_Variant>
CHEMBL3192_lig1055-1

> <s_i_glide_gridfile>
glide-grid_3f07

> <i_i_glide_lignum>
1149

> <i_i_glide_rotatable_bonds>
6

> <r_i_docking_score>
-7.46711908397904

> <r_i_glide_ligand_efficiency>
-0.266682824427823

> <r_i_glide_ligand_efficiency_sa>
-0.8098061227467

> <r_i_glide_ligand_efficiency_ln>
-1.72363032872542

> <r_i_glide_gscore>
-7.46711908397904

> <r_i_glide_lipo>
-1.23731266038924

> <r_i_glide_hbond>
-0.608

> <r_i_glide_metal>
-1.84243596562504

> <r_i_glide_rewards>
-0.950627543131619

> <r_i_glide_evdw>
-23.8246555328369

> <r_i_glide_ecoul>
-13.7442293167114

> <r_i_glide_erotb>
0.624124259315423

> <r_i_glide_esite>
-0.2

> <r_i_glide_emodel>
-54.3809012884841

> <r_i_glide_energy>
-37.5688848495483

> <r_i_glide_einternal>
2.69389605522156

> <i_i_glide_confnum>
55

> <i_i_glide_posenum>
240

> <r_i_glide_eff_state_penalty>
0

> <s_user_duplicate_titles>
CHEMBL3192_lig1055

> <s_m_subgroup_title>
dock_pv

> <s_m_subgroupid>
dock_pv

> <b_m_subgroup_collapsed>
1

$$$$
CHEMBL3192_lig120
                    3D
 Schrodinger Suite 2021-1.
 40 41  0  0  1  0            999 V2000
  -25.8910   30.6365  -39.5375 C   0  0  0  0  0  0
  -26.4926   31.1649  -40.6846 C   0  0  0  0  0  0
  -27.7243   30.6413  -41.0935 C   0  0  0  0  0  0
  -28.3402   29.6220  -40.3828 C   0  0  0  0  0  0
  -27.7219   29.0656  -39.2593 C   0  0  0  0  0  0
  -26.4978   29.5931  -38.8392 C   0  0  0  0  0  0
  -28.3284   27.9390  -38.5147 C   0  0  0  0  0  0
  -29.4130   27.2387  -38.9145 C   0  0  0  0  0  0
  -30.0625   26.1848  -38.1713 C   0  0  0  0  0  0
  -30.1137   26.3418  -36.8371 N   0  0  0  0  0  0
  -30.6130   25.2690  -38.7810 O   0  0  0  0  0  0
  -30.7803   25.3666  -36.0826 O   0  0  0  0  0  0
  -25.8340   32.2387  -41.4415 C   0  0  0  0  0  0
  -26.3190   32.7220  -42.5125 N   0  0  0  0  0  0
  -25.4699   33.7207  -43.0192 O   0  0  0  0  0  0
  -26.0513   34.2946  -44.1883 C   0  0  0  0  0  0
  -25.9516   33.3626  -45.3943 C   0  0  0  0  0  0
  -27.0869   32.7144  -45.8864 C   0  0  0  0  0  0
  -26.9905   31.8962  -47.0103 C   0  0  0  0  0  0
  -25.7583   31.7197  -47.6570 C   0  0  0  0  0  0
  -24.6225   32.3614  -47.1432 C   0  0  0  0  0  0
  -24.7182   33.1747  -46.0179 C   0  0  0  0  0  0
  -25.6551   30.8690  -48.8670 N   0  3  0  0  0  0
  -26.6130   30.1692  -49.1810 O   0  0  0  0  0  0
  -24.6038   30.8693  -49.5017 O   0  5  0  0  0  0
  -24.9415   31.0179  -39.1855 H   0  0  0  0  0  0
  -28.2129   31.0126  -41.9798 H   0  0  0  0  0  0
  -29.2930   29.2693  -40.7433 H   0  0  0  0  0  0
  -25.9920   29.1811  -37.9810 H   0  0  0  0  0  0
  -27.8515   27.6891  -37.5810 H   0  0  0  0  0  0
  -29.8668   27.4372  -39.8704 H   0  0  0  0  0  0
  -29.6512   27.0465  -36.2723 H   0  0  0  0  0  0
  -30.0697   24.8849  -35.6480 H   0  0  0  0  0  0
  -24.8950   32.5953  -41.0222 H   0  0  0  0  0  0
  -27.0830   34.6066  -44.0092 H   0  0  0  0  0  0
  -25.5126   35.2156  -44.4136 H   0  0  0  0  0  0
  -28.0449   32.8471  -45.4047 H   0  0  0  0  0  0
  -27.8817   31.4106  -47.3843 H   0  0  0  0  0  0
  -23.6578   32.2385  -47.6157 H   0  0  0  0  0  0
  -23.8349   33.6673  -45.6369 H   0  0  0  0  0  0
  1  6  1  0  0  0
  1  2  2  0  0  0
  1 26  1  0  0  0
  2 13  1  0  0  0
  2  3  1  0  0  0
  3  4  2  0  0  0
  3 27  1  0  0  0
  4  5  1  0  0  0
  4 28  1  0  0  0
  5  7  1  0  0  0
  5  6  2  0  0  0
  6 29  1  0  0  0
  7  8  2  0  0  0
  7 30  1  0  0  0
  8  9  1  0  0  0
  8 31  1  0  0  0
  9 10  1  0  0  0
  9 11  2  0  0  0
 10 12  1  0  0  0
 10 32  1  0  0  0
 12 33  1  0  0  0
 13 14  2  0  0  0
 13 34  1  0  0  0
 14 15  1  0  0  0
 15 16  1  0  0  0
 16 17  1  0  0  0
 16 35  1  0  0  0
 16 36  1  0  0  0
 17 18  2  0  0  0
 17 22  1  0  0  0
 18 19  1  0  0  0
 18 37  1  0  0  0
 19 20  2  0  0  0
 19 38  1  0  0  0
 20 21  1  0  0  0
 20 23  1  0  0  0
 21 22  2  0  0  0
 21 39  1  0  0  0
 22 40  1  0  0  0
 23 24  2  0  0  0
 23 25  1  0  0  0
M  CHG  2  23   1  25  -1
M  END
> <s_m_entry_id>
53017

> <s_m_entry_name>
dock_pv.236

> <s_m_Source_Path>
/home/csk/Desktop/cluster/DUD-E-result/hdac8

> <s_m_Source_File>
dock_pv.maegz

> <i_m_Source_File_Index>
236

> <chembl_id>
CHEMBL471042

> <chembl_pref_name>
None

> <i_lp_mmshare_version>
53161

> <i_f3d_flags>
0

> <r_lp_tautomer_probability>
1

> <s_lp_Force_Field>
OPLS_2005

> <r_lp_Energy>
26.80953

> <b_lp_Chiralities_Consistent>
1

> <s_lp_Variant>
CHEMBL3192_lig120-1

> <s_i_glide_gridfile>
glide-grid_3f07

> <i_i_glide_lignum>
129

> <i_i_glide_rotatable_bonds>
9

> <r_i_docking_score>
-7.45641570582844

> <r_i_glide_ligand_efficiency>
-0.298256628233138

> <r_i_glide_ligand_efficiency_sa>
-0.87210767055752

> <r_i_glide_ligand_efficiency_ln>
-1.76739397302868

> <r_i_glide_gscore>
-7.45641570582844

> <r_i_glide_lipo>
-1.38068197917551

> <r_i_glide_hbond>
-0.32

> <r_i_glide_metal>
-2.3

> <r_i_glide_rewards>
-1.29771496135265

> <r_i_glide_evdw>
-34.1030654907227

> <r_i_glide_ecoul>
-9.11033821105957

> <r_i_glide_erotb>
1.13855251044812

> <r_i_glide_esite>
-0.224867269553337

> <r_i_glide_emodel>
-65.4313012316251

> <r_i_glide_energy>
-43.2134037017822

> <r_i_glide_einternal>
3.67411470413208

> <i_i_glide_confnum>
43

> <i_i_glide_posenum>
358

> <r_i_glide_eff_state_penalty>
0

> <s_user_duplicate_titles>
CHEMBL3192_lig120,521234

> <s_m_subgroup_title>
dock_pv

> <s_m_subgroupid>
dock_pv

> <b_m_subgroup_collapsed>
1

$$$$
CHEMBL3192_lig267
                    3D
 Schrodinger Suite 2021-1.
 60 63  0  0  1  0            999 V2000
  -25.9952   32.1437  -43.2957 N   0  0  0  0  0  0
  -24.4082   30.5909  -43.1805 N   0  0  0  0  0  0
  -24.2650   31.2495  -44.3136 C   0  0  0  0  0  0
  -25.2607   32.2105  -44.4654 C   0  0  0  0  0  0
  -25.4343   31.1202  -42.5634 C   0  0  0  0  0  0
  -25.8812   30.6636  -41.2141 C   0  0  0  0  0  0
  -25.1322   31.0195  -40.0906 C   0  0  0  0  0  0
  -25.5041   30.5652  -38.8274 C   0  0  0  0  0  0
  -26.6132   29.7330  -38.6822 C   0  0  0  0  0  0
  -27.3757   29.3569  -39.7924 C   0  0  0  0  0  0
  -27.0112   29.8504  -41.0550 C   0  0  0  0  0  0
  -28.5114   28.4183  -39.6614 C   0  0  0  0  0  0
  -28.6335   27.4410  -38.7316 C   0  0  0  0  0  0
  -29.7646   26.5393  -38.6799 C   0  0  0  0  0  0
  -29.8203   25.7996  -37.5665 N   0  0  0  0  0  0
  -30.6122   26.4693  -39.5810 O   0  0  0  0  0  0
  -30.8608   24.8678  -37.4433 O   0  0  0  0  0  0
  -23.1099   30.9244  -45.2342 C   0  0  0  0  0  0
  -25.5370   33.1927  -45.5974 C   0  0  0  0  0  0
  -27.1032   33.0062  -42.9004 C   0  0  0  0  0  0
  -26.6038   34.4197  -42.5380 C   0  0  0  0  0  0
  -25.5598   32.5254  -46.9665 C   0  0  0  0  0  0
  -26.5858   31.6334  -47.2907 C   0  0  0  0  0  0
  -26.6126   31.0311  -48.5458 C   0  0  0  0  0  0
  -25.6159   31.3232  -49.4737 C   0  0  0  0  0  0
  -24.5884   32.2086  -49.1561 C   0  0  0  0  0  0
  -24.5609   32.8113  -47.9011 C   0  0  0  0  0  0
  -27.7462   35.3899  -42.2734 C   0  0  0  0  0  0
  -27.9107   35.9548  -41.0062 C   0  0  0  0  0  0
  -28.9451   36.8589  -40.7803 C   0  0  0  0  0  0
  -29.8145   37.1929  -41.8164 C   0  0  0  0  0  0
  -29.6571   36.6322  -43.0815 C   0  0  0  0  0  0
  -28.6191   35.7334  -43.3113 C   0  0  0  0  0  0
  -24.2589   31.6486  -40.1924 H   0  0  0  0  0  0
  -24.9224   30.8541  -37.9649 H   0  0  0  0  0  0
  -26.8804   29.3823  -37.6968 H   0  0  0  0  0  0
  -27.5817   29.5750  -41.9292 H   0  0  0  0  0  0
  -29.3029   28.5630  -40.3811 H   0  0  0  0  0  0
  -27.8666   27.2948  -37.9826 H   0  0  0  0  0  0
  -29.1817   25.7997  -36.7829 H   0  0  0  0  0  0
  -30.4204   24.0131  -37.5515 H   0  0  0  0  0  0
  -22.5625   31.8251  -45.5121 H   0  0  0  0  0  0
  -22.3835   30.2493  -44.7800 H   0  0  0  0  0  0
  -23.4496   30.4697  -46.1632 H   0  0  0  0  0  0
  -26.5053   33.6775  -45.4760 H   0  0  0  0  0  0
  -24.8018   33.9983  -45.5816 H   0  0  0  0  0  0
  -27.6043   32.5601  -42.0410 H   0  0  0  0  0  0
  -27.8102   33.0300  -43.7304 H   0  0  0  0  0  0
  -25.9984   34.8408  -43.3415 H   0  0  0  0  0  0
  -25.9474   34.3681  -41.6665 H   0  0  0  0  0  0
  -27.3627   31.4107  -46.5743 H   0  0  0  0  0  0
  -27.4126   30.3508  -48.8007 H   0  0  0  0  0  0
  -25.6452   30.8697  -50.4530 H   0  0  0  0  0  0
  -23.8205   32.4336  -49.8817 H   0  0  0  0  0  0
  -23.7644   33.4996  -47.6586 H   0  0  0  0  0  0
  -27.2334   35.7077  -40.1996 H   0  0  0  0  0  0
  -29.0670   37.3004  -39.8028 H   0  0  0  0  0  0
  -30.6123   37.8996  -41.6400 H   0  0  0  0  0  0
  -30.3294   36.9018  -43.8835 H   0  0  0  0  0  0
  -28.4901   35.3128  -44.2983 H   0  0  0  0  0  0
  1  4  1  0  0  0
  1  5  1  0  0  0
  1 20  1  0  0  0
  2  5  2  0  0  0
  2  3  1  0  0  0
  3 18  1  0  0  0
  3  4  2  0  0  0
  4 19  1  0  0  0
  5  6  1  0  0  0
  6 11  1  0  0  0
  6  7  2  0  0  0
  7  8  1  0  0  0
  7 34  1  0  0  0
  8  9  2  0  0  0
  8 35  1  0  0  0
  9 10  1  0  0  0
  9 36  1  0  0  0
 10 11  2  0  0  0
 10 12  1  0  0  0
 11 37  1  0  0  0
 12 13  2  0  0  0
 12 38  1  0  0  0
 13 14  1  0  0  0
 13 39  1  0  0  0
 14 16  2  0  0  0
 14 15  1  0  0  0
 15 17  1  0  0  0
 15 40  1  0  0  0
 17 41  1  0  0  0
 18 42  1  0  0  0
 18 43  1  0  0  0
 18 44  1  0  0  0
 19 22  1  0  0  0
 19 45  1  0  0  0
 19 46  1  0  0  0
 20 21  1  0  0  0
 20 47  1  0  0  0
 20 48  1  0  0  0
 21 28  1  0  0  0
 21 49  1  0  0  0
 21 50  1  0  0  0
 22 23  2  0  0  0
 22 27  1  0  0  0
 23 24  1  0  0  0
 23 51  1  0  0  0
 24 25  2  0  0  0
 24 52  1  0  0  0
 25 26  1  0  0  0
 25 53  1  0  0  0
 26 27  2  0  0  0
 26 54  1  0  0  0
 27 55  1  0  0  0
 28 29  2  0  0  0
 28 33  1  0  0  0
 29 30  1  0  0  0
 29 56  1  0  0  0
 30 31  2  0  0  0
 30 57  1  0  0  0
 31 32  1  0  0  0
 31 58  1  0  0  0
 32 33  2  0  0  0
 32 59  1  0  0  0
 33 60  1  0  0  0
M  END
> <s_m_entry_id>
53018

> <s_m_entry_name>
dock_pv.237

> <s_m_Source_Path>
/home/csk/Desktop/cluster/DUD-E-result/hdac8

> <s_m_Source_File>
dock_pv.maegz

> <i_m_Source_File_Index>
237

> <chembl_id>
CHEMBL1096705

> <chembl_pref_name>
None

> <i_lp_mmshare_version>
53161

> <i_f3d_flags>
0

> <r_lp_tautomer_probability>
1

> <s_lp_Force_Field>
OPLS_2005

> <r_lp_Energy>
29.760159

> <b_lp_Chiralities_Consistent>
1

> <s_lp_Variant>
CHEMBL3192_lig267-1

> <s_i_glide_gridfile>
glide-grid_3f07

> <i_i_glide_lignum>
280

> <i_i_glide_rotatable_bonds>
10

> <r_i_docking_score>
-7.45466392685221

> <r_i_glide_ligand_efficiency>
-0.225898906874309

> <r_i_glide_ligand_efficiency_sa>
-0.724578498063379

> <r_i_glide_ligand_efficiency_ln>
-1.65787865914785

> <r_i_glide_gscore>
-7.45466392685221

> <r_i_glide_lipo>
-1.18492996182302

> <r_i_glide_hbond>
-0.306768036136811

> <r_i_glide_metal>
-2.3

> <r_i_glide_rewards>
-0.611971868296284

> <r_i_glide_evdw>
-32.4292106628418

> <r_i_glide_ecoul>
-14.7199306488037

> <r_i_glide_erotb>
0.937546601961282

> <r_i_glide_esite>
-0.15909053209473

> <r_i_glide_emodel>
-70.156633991936

> <r_i_glide_energy>
-47.1491413116455

> <r_i_glide_einternal>
8.06532669067383

> <i_i_glide_confnum>
14

> <i_i_glide_posenum>
300

> <r_i_glide_eff_state_penalty>
0

> <s_user_duplicate_titles>
CHEMBL3192_lig267

> <s_m_subgroup_title>
dock_pv

> <s_m_subgroupid>
dock_pv

> <b_m_subgroup_collapsed>
1

$$$$
CHEMBL3192_lig147
                    3D
 Schrodinger Suite 2021-1.
 47 48  0  0  1  0            999 V2000
  -24.9786   31.2406  -45.7433 C   0  0  0  0  0  0
  -26.1736   30.9220  -45.1835 O   0  0  0  0  0  0
  -26.0439   30.9414  -43.7939 N   0  0  0  0  0  0
  -24.7904   31.2666  -43.5274 C   0  0  0  0  0  0
  -24.0801   31.4541  -44.7191 C   0  0  0  0  0  0
  -24.8800   31.2690  -47.2311 C   0  0  0  0  0  0
  -23.6293   31.4441  -47.8369 C   0  0  0  0  0  0
  -23.5098   31.4462  -49.2266 C   0  0  0  0  0  0
  -24.6399   31.2691  -50.0239 C   0  0  0  0  0  0
  -25.8898   31.0905  -49.4313 C   0  0  0  0  0  0
  -26.0116   31.1007  -48.0411 C   0  0  0  0  0  0
  -24.2130   31.3955  -42.2035 C   0  0  0  0  0  0
  -25.0580   31.1672  -41.1818 N   0  0  0  0  0  0
  -24.6838   31.1515  -39.7684 C   0  0  0  0  0  0
  -25.9056   31.2691  -38.8330 C   0  0  0  0  0  0
  -27.1273   30.3776  -39.1693 C   0  0  0  0  0  0
  -26.7748   28.8945  -39.3445 C   0  0  0  0  0  0
  -27.9681   27.9553  -39.5811 C   0  0  0  0  0  0
  -23.0217   31.6691  -42.0475 O   0  0  0  0  0  0
  -28.7420   27.5768  -38.3038 C   0  0  0  0  0  0
  -29.8130   26.4939  -38.5163 C   0  0  0  0  0  0
  -30.0689   25.6637  -37.4944 N   0  0  0  0  0  0
  -30.4436   26.4690  -39.5810 O   0  0  0  0  0  0
  -31.0130   24.6418  -37.6867 O   0  0  0  0  0  0
  -27.0129   30.8883  -50.2280 N   0  0  0  0  0  0
  -23.0368   31.7189  -44.8130 H   0  0  0  0  0  0
  -22.7414   31.5737  -47.2347 H   0  0  0  0  0  0
  -22.5406   31.5827  -49.6841 H   0  0  0  0  0  0
  -24.5377   31.2697  -51.0993 H   0  0  0  0  0  0
  -26.9838   30.9596  -47.5903 H   0  0  0  0  0  0
  -26.0217   30.9594  -41.3929 H   0  0  0  0  0  0
  -23.9820   31.9615  -39.5515 H   0  0  0  0  0  0
  -24.1673   30.2078  -39.5812 H   0  0  0  0  0  0
  -26.2137   32.3139  -38.8224 H   0  0  0  0  0  0
  -25.5799   31.0644  -37.8129 H   0  0  0  0  0  0
  -27.6122   30.7455  -40.0745 H   0  0  0  0  0  0
  -27.8681   30.4713  -38.3811 H   0  0  0  0  0  0
  -26.2057   28.5452  -38.4838 H   0  0  0  0  0  0
  -26.1193   28.8268  -40.2099 H   0  0  0  0  0  0
  -27.5676   27.0365  -40.0129 H   0  0  0  0  0  0
  -28.6326   28.4001  -40.3240 H   0  0  0  0  0  0
  -29.2204   28.4559  -37.8713 H   0  0  0  0  0  0
  -28.0137   27.2270  -37.5810 H   0  0  0  0  0  0
  -29.6171   25.6298  -36.5896 H   0  0  0  0  0  0
  -30.4789   23.8343  -37.7028 H   0  0  0  0  0  0
  -26.9576   31.1388  -51.2047 H   0  0  0  0  0  0
  -27.9216   30.8692  -49.7732 H   0  0  0  0  0  0
  1  5  2  0  0  0
  1  6  1  0  0  0
  1  2  1  0  0  0
  2  3  1  0  0  0
  3  4  2  0  0  0
  4 12  1  0  0  0
  4  5  1  0  0  0
  5 26  1  0  0  0
  6  7  2  0  0  0
  6 11  1  0  0  0
  7  8  1  0  0  0
  7 27  1  0  0  0
  8  9  2  0  0  0
  8 28  1  0  0  0
  9 10  1  0  0  0
  9 29  1  0  0  0
 10 11  2  0  0  0
 10 25  1  0  0  0
 11 30  1  0  0  0
 12 13  1  0  0  0
 12 19  2  0  0  0
 13 14  1  0  0  0
 13 31  1  0  0  0
 14 15  1  0  0  0
 14 32  1  0  0  0
 14 33  1  0  0  0
 15 16  1  0  0  0
 15 34  1  0  0  0
 15 35  1  0  0  0
 16 17  1  0  0  0
 16 36  1  0  0  0
 16 37  1  0  0  0
 17 18  1  0  0  0
 17 38  1  0  0  0
 17 39  1  0  0  0
 18 20  1  0  0  0
 18 40  1  0  0  0
 18 41  1  0  0  0
 20 21  1  0  0  0
 20 42  1  0  0  0
 20 43  1  0  0  0
 21 22  1  0  0  0
 21 23  2  0  0  0
 22 24  1  0  0  0
 22 44  1  0  0  0
 24 45  1  0  0  0
 25 46  1  0  0  0
 25 47  1  0  0  0
M  END
> <s_m_entry_id>
53019

> <s_m_entry_name>
dock_pv.238

> <s_m_Source_Path>
/home/csk/Desktop/cluster/DUD-E-result/hdac8

> <s_m_Source_File>
dock_pv.maegz

> <i_m_Source_File_Index>
238

> <chembl_id>
CHEMBL468595

> <chembl_pref_name>
None

> <i_lp_mmshare_version>
53161

> <i_f3d_flags>
0

> <r_lp_tautomer_probability>
1

> <s_lp_Force_Field>
OPLS_2005

> <r_lp_Energy>
13.013934

> <b_lp_Chiralities_Consistent>
1

> <s_lp_Variant>
CHEMBL3192_lig147-1

> <s_i_glide_gridfile>
glide-grid_3f07

> <i_i_glide_lignum>
157

> <i_i_glide_rotatable_bonds>
12

> <r_i_docking_score>
-7.45163909995281

> <r_i_glide_ligand_efficiency>
-0.298065563998112

> <r_i_glide_ligand_efficiency_sa>
-0.871548995345767

> <r_i_glide_ligand_efficiency_ln>
-1.76626177429282

> <r_i_glide_gscore>
-7.45163909995281

> <r_i_glide_lipo>
-0.663353805619332

> <r_i_glide_hbond>
-0.576

> <r_i_glide_metal>
-2.3

> <r_i_glide_rewards>
-1.09681367075783

> <r_i_glide_evdw>
-28.4754886627197

> <r_i_glide_ecoul>
-19.7065753936768

> <r_i_glide_erotb>
1.74300668023679

> <r_i_glide_esite>
-0.178717561624944

> <r_i_glide_emodel>
-70.254656406818

> <r_i_glide_energy>
-48.1820640563965

> <r_i_glide_einternal>
8.58460521697998

> <i_i_glide_confnum>
114

> <i_i_glide_posenum>
151

> <r_i_glide_eff_state_penalty>
0

> <s_user_duplicate_titles>
CHEMBL3192_lig147,488317

> <s_m_subgroup_title>
dock_pv

> <s_m_subgroupid>
dock_pv

> <b_m_subgroup_collapsed>
1

$$$$
CHEMBL3192_lig1058
                    3D
 Schrodinger Suite 2021-1.
 53 57  0  0  1  0            999 V2000
  -30.2138   25.4819  -37.3718 O   0  0  0  0  0  0
  -29.4130   26.6232  -37.5769 N   0  0  0  0  0  0
  -29.4116   27.1966  -38.7833 C   0  0  0  0  0  0
  -30.2330   26.8690  -39.6337 O   0  0  0  0  0  0
  -28.4040   28.3003  -39.0357 C   0  0  0  0  0  0
  -27.1854   28.2759  -38.3809 C   0  0  0  0  0  0
  -26.2308   29.2685  -38.5516 C   0  0  0  0  0  0
  -26.4211   30.2903  -39.4577 C   0  0  0  0  0  0
  -25.3007   31.3021  -39.6731 C   0  0  0  0  0  0
  -25.3608   31.9215  -41.0738 C   0  0  0  0  0  0
  -26.7664   32.5041  -41.2789 C   0  0  2  0  0  0
  -27.8829   31.4323  -41.1811 C   0  0  0  0  0  0
  -27.6492   30.3518  -40.1457 C   0  0  0  0  0  0
  -28.6258   29.3584  -39.9273 C   0  0  0  0  0  0
  -26.8845   33.2864  -42.5175 N   0  0  0  0  0  0
  -26.8348   32.7560  -43.8194 C   0  0  0  0  0  0
  -26.2938   31.5290  -44.0503 N   0  0  0  0  0  0
  -26.3643   31.0576  -45.3198 C   0  0  0  0  0  0
  -26.9726   31.7753  -46.3503 C   0  0  0  0  0  0
  -27.4915   33.0425  -46.0407 C   0  0  0  0  0  0
  -27.4123   33.5338  -44.7696 N   0  0  0  0  0  0
  -28.1882   33.9009  -47.0538 C   0  0  0  0  0  0
  -27.9250   33.7535  -48.4217 C   0  0  0  0  0  0
  -28.5729   34.5243  -49.3831 C   0  0  0  0  0  0
  -29.5293   35.4907  -48.9986 C   0  0  0  0  0  0
  -30.2248   36.2757  -49.9513 C   0  0  0  0  0  0
  -31.1740   37.2059  -49.5360 C   0  0  0  0  0  0
  -31.4489   37.3802  -48.1830 C   0  0  0  0  0  0
  -30.7788   36.6278  -47.2214 C   0  0  0  0  0  0
  -29.8106   35.6690  -47.6111 C   0  0  0  0  0  0
  -29.1258   34.8690  -46.6625 C   0  0  0  0  0  0
  -29.5819   24.7536  -37.3285 H   0  0  0  0  0  0
  -28.8367   26.8660  -36.7755 H   0  0  0  0  0  0
  -26.9909   27.4845  -37.6735 H   0  0  0  0  0  0
  -25.3076   29.2139  -37.9906 H   0  0  0  0  0  0
  -25.3946   32.0690  -38.9085 H   0  0  0  0  0  0
  -24.3243   30.8396  -39.5166 H   0  0  0  0  0  0
  -24.6025   32.7000  -41.1696 H   0  0  0  0  0  0
  -25.1237   31.1562  -41.8114 H   0  0  0  0  0  0
  -26.9529   33.2183  -40.4740 H   0  0  0  0  0  0
  -27.9657   30.8928  -42.1234 H   0  0  0  0  0  0
  -28.8467   31.9079  -41.0064 H   0  0  0  0  0  0
  -29.5555   29.4097  -40.4766 H   0  0  0  0  0  0
  -27.3458   34.1804  -42.4417 H   0  0  0  0  0  0
  -25.9430   30.0786  -45.4960 H   0  0  0  0  0  0
  -27.0443   31.3509  -47.3401 H   0  0  0  0  0  0
  -27.1992   33.0313  -48.7636 H   0  0  0  0  0  0
  -28.3509   34.3826  -50.4308 H   0  0  0  0  0  0
  -30.0191   36.1445  -51.0039 H   0  0  0  0  0  0
  -31.7017   37.7970  -50.2702 H   0  0  0  0  0  0
  -32.1899   38.1037  -47.8771 H   0  0  0  0  0  0
  -31.0017   36.7651  -46.1732 H   0  0  0  0  0  0
  -29.3607   35.0076  -45.6172 H   0  0  0  0  0  0
  1  2  1  0  0  0
  1 32  1  0  0  0
  2  3  1  0  0  0
  2 33  1  0  0  0
  3  4  2  0  0  0
  3  5  1  0  0  0
  5  6  2  0  0  0
  5 14  1  0  0  0
  6  7  1  0  0  0
  6 34  1  0  0  0
  7  8  2  0  0  0
  7 35  1  0  0  0
  8  9  1  0  0  0
  8 13  1  0  0  0
  9 10  1  0  0  0
  9 36  1  0  0  0
  9 37  1  0  0  0
 10 11  1  0  0  0
 10 38  1  0  0  0
 10 39  1  0  0  0
 11 12  1  0  0  0
 11 15  1  0  0  0
 11 40  1  0  0  0
 12 13  1  0  0  0
 12 41  1  0  0  0
 12 42  1  0  0  0
 13 14  2  0  0  0
 14 43  1  0  0  0
 15 16  1  0  0  0
 15 44  1  0  0  0
 16 17  2  0  0  0
 16 21  1  0  0  0
 17 18  1  0  0  0
 18 19  2  0  0  0
 18 45  1  0  0  0
 19 20  1  0  0  0
 19 46  1  0  0  0
 20 21  2  0  0  0
 20 22  1  0  0  0
 22 23  2  0  0  0
 22 31  1  0  0  0
 23 24  1  0  0  0
 23 47  1  0  0  0
 24 25  2  0  0  0
 24 48  1  0  0  0
 25 26  1  0  0  0
 25 30  1  0  0  0
 26 27  2  0  0  0
 26 49  1  0  0  0
 27 28  1  0  0  0
 27 50  1  0  0  0
 28 29  2  0  0  0
 28 51  1  0  0  0
 29 30  1  0  0  0
 29 52  1  0  0  0
 30 31  2  0  0  0
 31 53  1  0  0  0
M  END
> <s_m_entry_id>
53020

> <s_m_entry_name>
dock_pv.239

> <s_m_Source_Path>
/home/csk/Desktop/cluster/DUD-E-result/hdac8

> <s_m_Source_File>
dock_pv.maegz

> <i_m_Source_File_Index>
239

> <chembl_id>
CHEMBL3694306

> <chembl_pref_name>
None

> <i_lp_mmshare_version>
53161

> <i_f3d_flags>
0

> <r_lp_tautomer_probability>
0.999999987636

> <s_lp_Force_Field>
OPLS_2005

> <r_lp_Energy>
25.252135

> <b_lp_Chiralities_Consistent>
1

> <s_lp_Variant>
CHEMBL3192_lig1058-1

> <s_i_glide_gridfile>
glide-grid_3f07

> <i_i_glide_lignum>
1155

> <i_i_glide_rotatable_bonds>
6

> <r_i_docking_score>
-7.4516114204214

> <r_i_glide_ligand_efficiency>
-0.240374561949077

> <r_i_glide_ligand_efficiency_sa>
-0.755107997369544

> <r_i_glide_ligand_efficiency_ln>
-1.68056673976953

> <r_i_glide_gscore>
-7.4516114204214

> <r_i_glide_lipo>
-1.45881721481268

> <r_i_glide_hbond>
-0.608

> <r_i_glide_metal>
-1.82492053019462

> <r_i_glide_rewards>
-0.858747292248159

> <r_i_glide_evdw>
-24.8882274627686

> <r_i_glide_ecoul>
-12.2172412872314

> <r_i_glide_erotb>
0.584640209052569

> <r_i_glide_esite>
-0.208769025995364

> <r_i_glide_emodel>
-51.7420283442619

> <r_i_glide_energy>
-37.10546875

> <r_i_glide_einternal>
4.54971790313721

> <i_i_glide_confnum>
15

> <i_i_glide_posenum>
186

> <r_i_glide_eff_state_penalty>
0

> <s_user_duplicate_titles>
CHEMBL3192_lig1058

> <s_m_subgroup_title>
dock_pv

> <s_m_subgroupid>
dock_pv

> <b_m_subgroup_collapsed>
1

$$$$
CHEMBL3192_lig1039
                    3D
 Schrodinger Suite 2021-1.
 47 50  0  0  1  0            999 V2000
  -30.2403   25.6690  -37.2939 O   0  0  0  0  0  0
  -29.4130   26.7726  -37.5810 N   0  0  0  0  0  0
  -29.3870   27.2511  -38.8260 C   0  0  0  0  0  0
  -30.2130   26.8690  -39.6518 O   0  0  0  0  0  0
  -28.3517   28.3200  -39.1319 C   0  0  0  0  0  0
  -27.1847   28.3808  -38.3810 C   0  0  0  0  0  0
  -26.2130   29.3400  -38.6116 C   0  0  0  0  0  0
  -26.3382   30.2661  -39.6328 C   0  0  0  0  0  0
  -25.1801   31.2317  -39.9070 C   0  0  0  0  0  0
  -25.5860   32.4168  -40.7939 C   0  0  0  0  0  0
  -26.3696   31.8981  -42.0048 C   0  0  1  0  0  0
  -27.6944   31.2690  -41.5192 C   0  0  0  0  0  0
  -27.5068   30.2332  -40.4216 C   0  0  0  0  0  0
  -28.5014   29.2690  -40.1564 C   0  0  0  0  0  0
  -26.6631   33.0155  -42.9013 N   0  0  0  0  0  0
  -27.0021   32.8127  -44.2468 C   0  0  0  0  0  0
  -26.6130   31.6751  -44.8854 N   0  0  0  0  0  0
  -27.0126   31.5386  -46.1753 C   0  0  0  0  0  0
  -27.7878   32.4995  -46.8264 C   0  0  0  0  0  0
  -28.1427   33.6459  -46.0999 C   0  0  0  0  0  0
  -27.7427   33.8022  -44.8052 N   0  0  0  0  0  0
  -28.9970   34.7329  -46.6730 C   0  0  0  0  0  0
  -29.0126   34.9901  -48.0536 C   0  0  0  0  0  0
  -29.8116   36.0005  -48.5911 C   0  0  0  0  0  0
  -30.6164   36.7715  -47.7554 C   0  0  0  0  0  0
  -30.6168   36.5345  -46.3828 C   0  0  0  0  0  0
  -31.6140   37.4827  -45.3415 Cl  0  0  0  0  0  0
  -29.8121   35.5281  -45.8495 C   0  0  0  0  0  0
  -29.6232   24.9371  -37.1814 H   0  0  0  0  0  0
  -28.8225   27.0528  -36.8017 H   0  0  0  0  0  0
  -27.0130   27.6690  -37.5876 H   0  0  0  0  0  0
  -25.3141   29.3327  -38.0119 H   0  0  0  0  0  0
  -24.7588   31.6021  -38.9702 H   0  0  0  0  0  0
  -24.3824   30.6733  -40.3998 H   0  0  0  0  0  0
  -26.1866   33.1202  -40.2132 H   0  0  0  0  0  0
  -24.6941   32.9628  -41.1066 H   0  0  0  0  0  0
  -25.7847   31.1437  -42.5354 H   0  0  0  0  0  0
  -28.2096   30.8114  -42.3580 H   0  0  0  0  0  0
  -28.3508   32.0472  -41.1289 H   0  0  0  0  0  0
  -29.3975   29.2690  -40.7607 H   0  0  0  0  0  0
  -27.0456   33.8473  -42.4781 H   0  0  0  0  0  0
  -26.7121   30.6333  -46.6811 H   0  0  0  0  0  0
  -28.1128   32.3420  -47.8444 H   0  0  0  0  0  0
  -28.3970   34.4110  -48.7255 H   0  0  0  0  0  0
  -29.8098   36.1813  -49.6559 H   0  0  0  0  0  0
  -31.2388   37.5497  -48.1723 H   0  0  0  0  0  0
  -29.8333   35.3606  -44.7828 H   0  0  0  0  0  0
  1  2  1  0  0  0
  1 29  1  0  0  0
  2  3  1  0  0  0
  2 30  1  0  0  0
  3  4  2  0  0  0
  3  5  1  0  0  0
  5  6  2  0  0  0
  5 14  1  0  0  0
  6  7  1  0  0  0
  6 31  1  0  0  0
  7  8  2  0  0  0
  7 32  1  0  0  0
  8  9  1  0  0  0
  8 13  1  0  0  0
  9 10  1  0  0  0
  9 33  1  0  0  0
  9 34  1  0  0  0
 10 11  1  0  0  0
 10 35  1  0  0  0
 10 36  1  0  0  0
 11 12  1  0  0  0
 11 15  1  0  0  0
 11 37  1  0  0  0
 12 13  1  0  0  0
 12 38  1  0  0  0
 12 39  1  0  0  0
 13 14  2  0  0  0
 14 40  1  0  0  0
 15 16  1  0  0  0
 15 41  1  0  0  0
 16 17  2  0  0  0
 16 21  1  0  0  0
 17 18  1  0  0  0
 18 19  2  0  0  0
 18 42  1  0  0  0
 19 20  1  0  0  0
 19 43  1  0  0  0
 20 21  2  0  0  0
 20 22  1  0  0  0
 22 23  2  0  0  0
 22 28  1  0  0  0
 23 24  1  0  0  0
 23 44  1  0  0  0
 24 25  2  0  0  0
 24 45  1  0  0  0
 25 26  1  0  0  0
 25 46  1  0  0  0
 26 27  1  0  0  0
 26 28  2  0  0  0
 28 47  1  0  0  0
M  END
> <s_m_entry_id>
53021

> <s_m_entry_name>
dock_pv.240

> <s_m_Source_Path>
/home/csk/Desktop/cluster/DUD-E-result/hdac8

> <s_m_Source_File>
dock_pv.maegz

> <i_m_Source_File_Index>
240

> <chembl_id>
CHEMBL3357480

> <chembl_pref_name>
None

> <i_lp_mmshare_version>
53161

> <i_f3d_flags>
0

> <r_lp_tautomer_probability>
0.999999987636

> <s_lp_Force_Field>
OPLS_2005

> <r_lp_Energy>
26.943542

> <b_lp_Chiralities_Consistent>
1

> <s_lp_Variant>
CHEMBL3192_lig1039-2

> <s_i_glide_gridfile>
glide-grid_3f07

> <i_i_glide_lignum>
1118

> <i_i_glide_rotatable_bonds>
6

> <r_i_docking_score>
-7.44649040274726

> <r_i_glide_ligand_efficiency>
-0.265946085812402

> <r_i_glide_ligand_efficiency_sa>
-0.807568950394444

> <r_i_glide_ligand_efficiency_ln>
-1.71886862341273

> <r_i_glide_gscore>
-7.44649040274726

> <r_i_glide_lipo>
-1.35156022056633

> <r_i_glide_hbond>
-0.608

> <r_i_glide_metal>
-1.85900828446485

> <r_i_glide_rewards>
-0.958277441297762

> <r_i_glide_evdw>
-22.5203456878662

> <r_i_glide_ecoul>
-13.1227941513062

> <r_i_glide_erotb>
0.626935321326681

> <r_i_glide_esite>
-0.202143370655761

> <r_i_glide_emodel>
-51.0869539059658

> <r_i_glide_energy>
-35.6431398391724

> <r_i_glide_einternal>
2.71074938774109

> <i_i_glide_confnum>
1

> <i_i_glide_posenum>
215

> <r_i_glide_eff_state_penalty>
0

> <s_user_duplicate_titles>
CHEMBL3192_lig1039

> <s_m_subgroup_title>
dock_pv

> <s_m_subgroupid>
dock_pv

> <b_m_subgroup_collapsed>
1

$$$$
CHEMBL3192_lig1035
                    3D
 Schrodinger Suite 2021-1.
 47 50  0  0  1  0            999 V2000
  -30.2348   25.6702  -37.2938 O   0  0  0  0  0  0
  -29.4131   26.7785  -37.5805 N   0  0  0  0  0  0
  -29.3852   27.2535  -38.8277 C   0  0  0  0  0  0
  -30.2130   26.8690  -39.6515 O   0  0  0  0  0  0
  -28.3472   28.3214  -39.1356 C   0  0  0  0  0  0
  -27.1823   28.3845  -38.3811 C   0  0  0  0  0  0
  -26.2142   29.3510  -38.6000 C   0  0  0  0  0  0
  -26.3411   30.2840  -39.6148 C   0  0  0  0  0  0
  -25.1925   31.2687  -39.8661 C   0  0  0  0  0  0
  -25.5896   32.4372  -40.7810 C   0  0  0  0  0  0
  -26.3416   31.8865  -41.9961 C   0  0  1  0  0  0
  -27.6750   31.2691  -41.5269 C   0  0  0  0  0  0
  -27.5001   30.2405  -40.4183 C   0  0  0  0  0  0
  -28.4916   29.2690  -40.1626 C   0  0  0  0  0  0
  -26.6132   32.9689  -42.9411 N   0  0  0  0  0  0
  -26.8523   32.7142  -44.2996 C   0  0  0  0  0  0
  -26.4046   31.5592  -44.8626 N   0  0  0  0  0  0
  -26.6868   31.3763  -46.1757 C   0  0  0  0  0  0
  -27.4133   32.3023  -46.9229 C   0  0  0  0  0  0
  -27.8366   33.4721  -46.2735 C   0  0  0  0  0  0
  -27.5488   33.6766  -44.9545 N   0  0  0  0  0  0
  -28.6401   34.5332  -46.9637 C   0  0  0  0  0  0
  -29.4422   35.4267  -46.2337 C   0  0  0  0  0  0
  -30.1991   36.4028  -46.8763 C   0  0  0  0  0  0
  -30.1618   36.5003  -48.2633 C   0  0  0  0  0  0
  -29.3701   35.6333  -49.0091 C   0  0  0  0  0  0
  -28.6146   34.6587  -48.3620 C   0  0  0  0  0  0
  -29.6139   24.9414  -37.1817 H   0  0  0  0  0  0
  -28.8228   27.0600  -36.8014 H   0  0  0  0  0  0
  -27.0132   27.6714  -37.5882 H   0  0  0  0  0  0
  -25.3207   29.3484  -37.9922 H   0  0  0  0  0  0
  -24.8076   31.6577  -38.9212 H   0  0  0  0  0  0
  -24.3697   30.7189  -40.3263 H   0  0  0  0  0  0
  -26.2097   33.1445  -40.2263 H   0  0  0  0  0  0
  -24.6966   32.9863  -41.0848 H   0  0  0  0  0  0
  -25.7408   31.1144  -42.4815 H   0  0  0  0  0  0
  -28.1701   30.8002  -42.3717 H   0  0  0  0  0  0
  -28.3385   32.0517  -41.1582 H   0  0  0  0  0  0
  -29.3830   29.2678  -40.7741 H   0  0  0  0  0  0
  -27.0278   33.8101  -42.5703 H   0  0  0  0  0  0
  -26.3212   30.4688  -46.6277 H   0  0  0  0  0  0
  -27.6435   32.1010  -47.9582 H   0  0  0  0  0  0
  -29.4936   35.3636  -45.1568 H   0  0  0  0  0  0
  -30.8155   37.0780  -46.3014 H   0  0  0  0  0  0
  -30.7509   37.2542  -48.7646 H   0  0  0  0  0  0
  -29.3425   35.7149  -50.0856 H   0  0  0  0  0  0
  -28.0037   34.0060  -48.9665 H   0  0  0  0  0  0
  1  2  1  0  0  0
  1 28  1  0  0  0
  2  3  1  0  0  0
  2 29  1  0  0  0
  3  4  2  0  0  0
  3  5  1  0  0  0
  5  6  2  0  0  0
  5 14  1  0  0  0
  6  7  1  0  0  0
  6 30  1  0  0  0
  7  8  2  0  0  0
  7 31  1  0  0  0
  8  9  1  0  0  0
  8 13  1  0  0  0
  9 10  1  0  0  0
  9 32  1  0  0  0
  9 33  1  0  0  0
 10 11  1  0  0  0
 10 34  1  0  0  0
 10 35  1  0  0  0
 11 12  1  0  0  0
 11 15  1  0  0  0
 11 36  1  0  0  0
 12 13  1  0  0  0
 12 37  1  0  0  0
 12 38  1  0  0  0
 13 14  2  0  0  0
 14 39  1  0  0  0
 15 16  1  0  0  0
 15 40  1  0  0  0
 16 17  2  0  0  0
 16 21  1  0  0  0
 17 18  1  0  0  0
 18 19  2  0  0  0
 18 41  1  0  0  0
 19 20  1  0  0  0
 19 42  1  0  0  0
 20 21  2  0  0  0
 20 22  1  0  0  0
 22 23  2  0  0  0
 22 27  1  0  0  0
 23 24  1  0  0  0
 23 43  1  0  0  0
 24 25  2  0  0  0
 24 44  1  0  0  0
 25 26  1  0  0  0
 25 45  1  0  0  0
 26 27  2  0  0  0
 26 46  1  0  0  0
 27 47  1  0  0  0
M  END
> <s_m_entry_id>
53022

> <s_m_entry_name>
dock_pv.241

> <s_m_Source_Path>
/home/csk/Desktop/cluster/DUD-E-result/hdac8

> <s_m_Source_File>
dock_pv.maegz

> <i_m_Source_File_Index>
241

> <chembl_id>
CHEMBL3357478

> <chembl_pref_name>
None

> <i_lp_mmshare_version>
53161

> <i_f3d_flags>
0

> <r_lp_tautomer_probability>
0.999999987636

> <s_lp_Force_Field>
OPLS_2005

> <r_lp_Energy>
22.012084

> <b_lp_Chiralities_Consistent>
1

> <s_lp_Variant>
CHEMBL3192_lig1035-2

> <s_i_glide_gridfile>
glide-grid_3f07

> <i_i_glide_lignum>
1110

> <i_i_glide_rotatable_bonds>
6

> <r_i_docking_score>
-7.44594657792805

> <r_i_glide_ligand_efficiency>
-0.275775799182521

> <r_i_glide_ligand_efficiency_sa>
-0.82732739663865

> <r_i_glide_ligand_efficiency_ln>
-1.73329360731841

> <r_i_glide_gscore>
-7.44594657792805

> <r_i_glide_lipo>
-1.31879872903803

> <r_i_glide_hbond>
-0.608

> <r_i_glide_metal>
-1.85801827833985

> <r_i_glide_rewards>
-1.19579674585616

> <r_i_glide_evdw>
-22.0871906280518

> <r_i_glide_ecoul>
-12.6521739959717

> <r_i_glide_erotb>
0.738238077442426

> <r_i_glide_esite>
-0.201385271338095

> <r_i_glide_emodel>
-49.8733591382192

> <r_i_glide_energy>
-34.7393646240234

> <r_i_glide_einternal>
2.47433423995972

> <i_i_glide_confnum>
7

> <i_i_glide_posenum>
323

> <r_i_glide_eff_state_penalty>
0

> <s_user_duplicate_titles>
CHEMBL3192_lig1035

> <s_m_subgroup_title>
dock_pv

> <s_m_subgroupid>
dock_pv

> <b_m_subgroup_collapsed>
1

$$$$
CHEMBL3192_lig688
                    3D
 Schrodinger Suite 2021-1.
 46 48  0  0  1  0            999 V2000
  -24.6488   32.2423  -49.8413 O   0  0  0  0  0  0
  -25.8201   31.6368  -49.1999 S   0  0  0  0  0  0
  -26.2136   30.2615  -49.5252 O   0  0  0  0  0  0
  -29.0418   29.0950  -39.9811 C   0  0  0  0  0  0
  -28.6004   28.1545  -39.0436 C   0  0  0  0  0  0
  -27.3708   28.3651  -38.4189 C   0  0  0  0  0  0
  -28.2633   30.1932  -40.3230 C   0  0  0  0  0  0
  -27.0046   30.3452  -39.7528 C   0  0  0  0  0  0
  -26.5679   29.4456  -38.7814 C   0  0  0  0  0  0
  -29.4359   26.9330  -38.7381 C   0  0  0  0  0  0
  -29.4130   26.4690  -37.4863 N   0  0  0  0  0  0
  -30.2131   26.4733  -39.5810 O   0  0  0  0  0  0
  -30.2129   25.3517  -37.1711 O   0  0  0  0  0  0
  -26.1804   31.3876  -40.2000 N   0  0  0  0  0  0
  -25.0061   30.9701  -40.9815 C   0  0  2  0  0  0
  -23.9547   32.0480  -41.1178 C   0  0  0  0  0  0
  -24.0812   32.5485  -42.5440 C   0  0  0  0  0  0
  -24.8998   31.5597  -43.2617 N   0  0  0  0  0  0
  -25.4279   30.6204  -42.4240 C   0  0  0  0  0  0
  -26.1556   29.6692  -42.7191 O   0  0  0  0  0  0
  -25.1434   31.6222  -44.6602 C   0  0  0  0  0  0
  -26.3736   31.2277  -45.2127 C   0  0  0  0  0  0
  -26.5835   31.2661  -46.5864 C   0  0  0  0  0  0
  -25.5615   31.6933  -47.4298 C   0  0  0  0  0  0
  -24.3459   32.1279  -46.8968 C   0  0  0  0  0  0
  -24.1425   32.1006  -45.5177 C   0  0  0  0  0  0
  -27.2988   32.7635  -49.4834 C   0  0  0  0  0  0
  -29.9926   28.9761  -40.4784 H   0  0  0  0  0  0
  -27.0129   27.6646  -37.6805 H   0  0  0  0  0  0
  -28.6125   30.8793  -41.0801 H   0  0  0  0  0  0
  -25.5934   29.5685  -38.3326 H   0  0  0  0  0  0
  -28.8801   26.8257  -36.6971 H   0  0  0  0  0  0
  -29.5905   24.6146  -37.1618 H   0  0  0  0  0  0
  -26.6961   32.1149  -40.6721 H   0  0  0  0  0  0
  -24.5465   30.0695  -40.5679 H   0  0  0  0  0  0
  -24.0613   32.8579  -40.3925 H   0  0  0  0  0  0
  -22.9655   31.6153  -40.9587 H   0  0  0  0  0  0
  -23.0902   32.6608  -42.9851 H   0  0  0  0  0  0
  -24.5696   33.5242  -42.5625 H   0  0  0  0  0  0
  -27.1834   30.8886  -44.5861 H   0  0  0  0  0  0
  -27.5285   30.9325  -46.9927 H   0  0  0  0  0  0
  -23.5503   32.4662  -47.5459 H   0  0  0  0  0  0
  -23.1853   32.4192  -45.1334 H   0  0  0  0  0  0
  -27.4979   32.8018  -50.5532 H   0  0  0  0  0  0
  -28.1630   32.3547  -48.9614 H   0  0  0  0  0  0
  -27.0601   33.7575  -49.1086 H   0  0  0  0  0  0
  1  2  2  0  0  0
  2  3  2  0  0  0
  2 24  1  0  0  0
  2 27  1  0  0  0
  4  5  2  0  0  0
  4  7  1  0  0  0
  4 28  1  0  0  0
  5  6  1  0  0  0
  5 10  1  0  0  0
  6  9  2  0  0  0
  6 29  1  0  0  0
  7  8  2  0  0  0
  7 30  1  0  0  0
  8  9  1  0  0  0
  8 14  1  0  0  0
  9 31  1  0  0  0
 10 11  1  0  0  0
 10 12  2  0  0  0
 11 13  1  0  0  0
 11 32  1  0  0  0
 13 33  1  0  0  0
 14 15  1  0  0  0
 14 34  1  0  0  0
 15 16  1  0  0  0
 15 19  1  0  0  0
 15 35  1  0  0  0
 16 17  1  0  0  0
 16 36  1  0  0  0
 16 37  1  0  0  0
 17 18  1  0  0  0
 17 38  1  0  0  0
 17 39  1  0  0  0
 18 19  1  0  0  0
 18 21  1  0  0  0
 19 20  2  0  0  0
 21 22  2  0  0  0
 21 26  1  0  0  0
 22 23  1  0  0  0
 22 40  1  0  0  0
 23 24  2  0  0  0
 23 41  1  0  0  0
 24 25  1  0  0  0
 25 26  2  0  0  0
 25 42  1  0  0  0
 26 43  1  0  0  0
 27 44  1  0  0  0
 27 45  1  0  0  0
 27 46  1  0  0  0
M  END
> <s_m_entry_id>
53023

> <s_m_entry_name>
dock_pv.242

> <s_m_Source_Path>
/home/csk/Desktop/cluster/DUD-E-result/hdac8

> <s_m_Source_File>
dock_pv.maegz

> <i_m_Source_File_Index>
242

> <chembl_id>
CHEMBL3415620

> <chembl_pref_name>
None

> <i_lp_mmshare_version>
53161

> <i_f3d_flags>
0

> <r_lp_tautomer_probability>
1

> <s_lp_Force_Field>
OPLS_2005

> <r_lp_Energy>
47.668189

> <b_lp_Chiralities_Consistent>
1

> <s_lp_Variant>
CHEMBL3192_lig688-1

> <s_i_glide_gridfile>
glide-grid_3f07

> <i_i_glide_lignum>
726

> <i_i_glide_rotatable_bonds>
7

> <r_i_docking_score>
-7.43504261560042

> <r_i_glide_ligand_efficiency>
-0.275371948725941

> <r_i_glide_ligand_efficiency_sa>
-0.826115845270243

> <r_i_glide_ligand_efficiency_ln>
-1.7307553446544

> <r_i_glide_gscore>
-7.43504261560042

> <r_i_glide_lipo>
-1.37323212553025

> <r_i_glide_hbond>
-0.665717737922358

> <r_i_glide_metal>
-2.3

> <r_i_glide_rewards>
0.438839781399602

> <r_i_glide_evdw>
-27.8400211334229

> <r_i_glide_ecoul>
-16.7918529510498

> <r_i_glide_erotb>
0.642721734803863

> <r_i_glide_esite>
-0.266875269022665

> <r_i_glide_emodel>
-59.4322536949714

> <r_i_glide_energy>
-44.6318740844727

> <r_i_glide_einternal>
11.4577302932739

> <i_i_glide_confnum>
23

> <i_i_glide_posenum>
365

> <r_i_glide_eff_state_penalty>
0

> <s_user_duplicate_titles>
CHEMBL3192_lig688

> <s_m_subgroup_title>
dock_pv

> <s_m_subgroupid>
dock_pv

> <b_m_subgroup_collapsed>
1

$$$$
CHEMBL3192_lig222
                    3D
 Schrodinger Suite 2021-1.
 65 68  0  0  1  0            999 V2000
  -27.7065   31.4038  -40.3310 C   0  0  0  0  0  0
  -26.3897   31.3492  -39.8608 C   0  0  0  0  0  0
  -25.9639   30.2169  -39.1574 C   0  0  0  0  0  0
  -26.8391   29.1488  -38.9576 C   0  0  0  0  0  0
  -28.1325   29.1819  -39.4833 C   0  0  0  0  0  0
  -28.5620   30.3221  -40.1640 C   0  0  0  0  0  0
  -29.0897   28.0860  -39.3198 C   0  0  0  0  0  0
  -29.1197   27.1518  -38.3453 C   0  0  0  0  0  0
  -30.1832   26.1758  -38.2716 C   0  0  0  0  0  0
  -30.2130   25.4486  -37.1440 N   0  0  0  0  0  0
  -31.0130   26.0690  -39.1810 O   0  0  0  0  0  0
  -31.2096   24.4690  -37.0122 O   0  0  0  0  0  0
  -25.4652   32.5507  -40.0432 C   0  0  0  0  0  0
  -24.9136   32.7373  -41.3980 N   0  0  2  0  0  0
  -23.9865   33.8796  -41.3486 C   0  0  0  0  0  0
  -23.4412   34.2742  -42.7318 C   0  0  0  0  0  0
  -24.5626   34.5954  -43.7308 C   0  0  0  0  0  0
  -25.5490   33.4172  -43.8035 C   0  0  1  0  0  0
  -25.9670   32.8754  -42.4178 C   0  0  0  0  0  0
  -26.7524   33.6703  -44.7129 C   0  0  0  0  0  0
  -28.2807   33.6458  -46.3573 N   0  0  0  0  0  0
  -27.0684   33.1149  -45.9689 C   0  0  0  0  0  0
  -28.7918   34.5120  -45.4301 C   0  0  0  0  0  0
  -27.8321   34.5798  -44.3855 C   0  0  0  0  0  0
  -28.0976   35.4439  -43.3049 C   0  0  0  0  0  0
  -29.2875   36.1704  -43.2827 C   0  0  0  0  0  0
  -30.2138   36.0611  -44.3155 C   0  0  0  0  0  0
  -29.9886   35.2362  -45.4168 C   0  0  0  0  0  0
  -24.7139   30.1505  -38.6450 F   0  0  0  0  0  0
  -26.3733   32.1306  -46.9404 C   0  0  0  0  0  0
  -25.7444   32.9330  -48.1016 C   0  0  0  0  0  0
  -27.4130   31.1439  -47.5260 C   0  0  0  0  0  0
  -25.2695   31.2722  -46.2841 C   0  0  0  0  0  0
  -28.0720   32.2830  -40.8378 H   0  0  0  0  0  0
  -26.4985   28.2896  -38.4025 H   0  0  0  0  0  0
  -29.5667   30.3836  -40.5577 H   0  0  0  0  0  0
  -29.8435   28.0690  -40.0909 H   0  0  0  0  0  0
  -28.3625   27.1338  -37.5810 H   0  0  0  0  0  0
  -29.5680   25.4746  -36.3656 H   0  0  0  0  0  0
  -30.7414   23.6420  -37.1810 H   0  0  0  0  0  0
  -24.6471   32.4690  -39.3254 H   0  0  0  0  0  0
  -26.0235   33.4419  -39.7492 H   0  0  0  0  0  0
  -23.1647   33.6564  -40.6652 H   0  0  0  0  0  0
  -24.5052   34.7402  -40.9201 H   0  0  0  0  0  0
  -22.7939   33.4806  -43.1084 H   0  0  0  0  0  0
  -22.7931   35.1445  -42.6232 H   0  0  0  0  0  0
  -24.1104   34.7836  -44.7056 H   0  0  0  0  0  0
  -25.0662   35.4965  -43.3780 H   0  0  0  0  0  0
  -24.9675   32.5849  -44.1745 H   0  0  0  0  0  0
  -26.7068   33.5634  -42.0144 H   0  0  0  0  0  0
  -26.4884   31.9266  -42.5442 H   0  0  0  0  0  0
  -28.7123   33.3886  -47.2330 H   0  0  0  0  0  0
  -27.3881   35.5574  -42.4992 H   0  0  0  0  0  0
  -29.4904   36.8377  -42.4570 H   0  0  0  0  0  0
  -31.1237   36.6426  -44.2699 H   0  0  0  0  0  0
  -30.7064   35.1670  -46.2222 H   0  0  0  0  0  0
  -24.9894   33.6310  -47.7362 H   0  0  0  0  0  0
  -25.2627   32.2814  -48.8319 H   0  0  0  0  0  0
  -26.4899   33.5249  -48.6345 H   0  0  0  0  0  0
  -27.8823   30.5437  -46.7447 H   0  0  0  0  0  0
  -28.2125   31.6690  -48.0473 H   0  0  0  0  0  0
  -26.9670   30.4593  -48.2483 H   0  0  0  0  0  0
  -25.6197   30.7978  -45.3663 H   0  0  0  0  0  0
  -24.9411   30.4690  -46.9421 H   0  0  0  0  0  0
  -24.3764   31.8561  -46.0608 H   0  0  0  0  0  0
  1  6  1  0  0  0
  1  2  2  0  0  0
  1 34  1  0  0  0
  2  3  1  0  0  0
  2 13  1  0  0  0
  3 29  1  0  0  0
  3  4  2  0  0  0
  4  5  1  0  0  0
  4 35  1  0  0  0
  5  6  2  0  0  0
  5  7  1  0  0  0
  6 36  1  0  0  0
  7  8  2  0  0  0
  7 37  1  0  0  0
  8  9  1  0  0  0
  8 38  1  0  0  0
  9 10  1  0  0  0
  9 11  2  0  0  0
 10 12  1  0  0  0
 10 39  1  0  0  0
 12 40  1  0  0  0
 13 14  1  0  0  0
 13 41  1  0  0  0
 13 42  1  0  0  0
 14 19  1  0  0  0
 14 15  1  0  0  0
 15 16  1  0  0  0
 15 43  1  0  0  0
 15 44  1  0  0  0
 16 17  1  0  0  0
 16 45  1  0  0  0
 16 46  1  0  0  0
 17 18  1  0  0  0
 17 47  1  0  0  0
 17 48  1  0  0  0
 18 19  1  0  0  0
 18 20  1  0  0  0
 18 49  1  0  0  0
 19 50  1  0  0  0
 19 51  1  0  0  0
 20 24  1  0  0  0
 20 22  2  0  0  0
 21 23  1  0  0  0
 21 22  1  0  0  0
 21 52  1  0  0  0
 22 30  1  0  0  0
 23 24  2  0  0  0
 23 28  1  0  0  0
 24 25  1  0  0  0
 25 26  2  0  0  0
 25 53  1  0  0  0
 26 27  1  0  0  0
 26 54  1  0  0  0
 27 28  2  0  0  0
 27 55  1  0  0  0
 28 56  1  0  0  0
 30 31  1  0  0  0
 30 32  1  0  0  0
 30 33  1  0  0  0
 31 57  1  0  0  0
 31 58  1  0  0  0
 31 59  1  0  0  0
 32 60  1  0  0  0
 32 61  1  0  0  0
 32 62  1  0  0  0
 33 63  1  0  0  0
 33 64  1  0  0  0
 33 65  1  0  0  0
M  END
> <s_m_entry_id>
53024

> <s_m_entry_name>
dock_pv.243

> <s_m_Source_Path>
/home/csk/Desktop/cluster/DUD-E-result/hdac8

> <s_m_Source_File>
dock_pv.maegz

> <i_m_Source_File_Index>
243

> <chembl_id>
CHEMBL1093033

> <chembl_pref_name>
None

> <i_lp_mmshare_version>
53161

> <i_f3d_flags>
0

> <r_lp_tautomer_probability>
1

> <s_lp_Force_Field>
OPLS_2005

> <r_lp_Energy>
42.050405

> <b_lp_Chiralities_Consistent>
1

> <s_lp_Variant>
CHEMBL3192_lig222-1

> <s_i_glide_gridfile>
glide-grid_3f07

> <i_i_glide_lignum>
232

> <i_i_glide_rotatable_bonds>
8

> <r_i_docking_score>
-7.43437983362741

> <r_i_glide_ligand_efficiency>
-0.225284237382649

> <r_i_glide_ligand_efficiency_sa>
-0.722606924569575

> <r_i_glide_ligand_efficiency_ln>
-1.65336758184007

> <r_i_glide_gscore>
-7.43437983362741

> <r_i_glide_lipo>
-1.08845794518435

> <r_i_glide_hbond>
-0.237509136535659

> <r_i_glide_metal>
-2.3

> <r_i_glide_rewards>
-0.607134681575378

> <r_i_glide_evdw>
-37.0135307312012

> <r_i_glide_ecoul>
-12.3039836883545

> <r_i_glide_erotb>
0.594996019481208

> <r_i_glide_esite>
-0.1

> <r_i_glide_emodel>
-73.337979060573

> <r_i_glide_energy>
-49.3175144195557

> <r_i_glide_einternal>
5.41876745223999

> <i_i_glide_confnum>
18

> <i_i_glide_posenum>
139

> <r_i_glide_eff_state_penalty>
0

> <s_user_duplicate_titles>
CHEMBL3192_lig222,620617

> <s_m_subgroup_title>
dock_pv

> <s_m_subgroupid>
dock_pv

> <b_m_subgroup_collapsed>
1

$$$$
CHEMBL3192_lig153
                    3D
 Schrodinger Suite 2021-1.
 53 56  0  0  1  0            999 V2000
  -29.9213   26.4689  -38.4657 C   0  0  0  0  0  0
  -28.9096   27.5471  -38.0828 C   0  0  0  0  0  0
  -30.2059   25.5569  -37.5234 N   0  0  0  0  0  0
  -30.4523   26.4716  -39.5807 O   0  0  0  0  0  0
  -31.0130   24.4692  -37.8753 O   0  0  0  0  0  0
  -28.1987   28.3074  -39.2209 C   0  0  0  0  0  0
  -29.0112   29.4404  -39.8812 C   0  0  0  0  0  0
  -28.1199   30.5280  -40.5122 C   0  0  0  0  0  0
  -27.1357   30.0049  -41.5828 C   0  0  0  0  0  0
  -26.0496   30.9881  -42.0942 C   0  0  0  0  0  0
  -24.8664   31.1702  -41.1512 C   0  0  0  0  0  0
  -26.6118   32.3278  -42.5580 C   0  0  0  0  0  0
  -23.5030   31.2008  -39.3421 N   0  0  0  0  0  0
  -24.7509   30.8697  -39.8015 C   0  0  0  0  0  0
  -26.8797   32.6974  -43.8651 C   0  0  0  0  0  0
  -27.4117   33.9599  -43.9135 N   0  0  0  0  0  0
  -22.7376   31.6868  -40.3757 C   0  0  0  0  0  0
  -23.5706   31.6754  -41.5352 C   0  0  0  0  0  0
  -23.0259   32.1177  -42.7524 C   0  0  0  0  0  0
  -21.7001   32.5481  -42.7891 C   0  0  0  0  0  0
  -20.9139   32.5531  -41.6394 C   0  0  0  0  0  0
  -21.4100   32.1283  -40.4064 C   0  0  0  0  0  0
  -26.9834   33.4769  -41.7573 C   0  0  0  0  0  0
  -27.5053   34.4731  -42.6411 C   0  0  0  0  0  0
  -27.9873   35.7069  -42.1888 C   0  0  0  0  0  0
  -27.9253   35.9467  -40.8164 C   0  0  0  0  0  0
  -27.4132   35.0040  -39.9316 C   0  0  0  0  0  0
  -26.9425   33.7731  -40.3824 C   0  0  0  0  0  0
  -28.1076   27.0204  -37.5810 H   0  0  0  0  0  0
  -29.3674   28.2385  -37.3698 H   0  0  0  0  0  0
  -29.8105   25.4812  -36.5961 H   0  0  0  0  0  0
  -30.3975   23.7214  -37.9121 H   0  0  0  0  0  0
  -27.8399   27.6067  -39.9770 H   0  0  0  0  0  0
  -27.2961   28.7437  -38.7872 H   0  0  0  0  0  0
  -29.6391   29.9258  -39.1336 H   0  0  0  0  0  0
  -29.6923   29.0209  -40.6220 H   0  0  0  0  0  0
  -27.5725   31.0277  -39.7162 H   0  0  0  0  0  0
  -28.7599   31.2896  -40.9556 H   0  0  0  0  0  0
  -27.7301   29.6688  -42.4292 H   0  0  0  0  0  0
  -26.6226   29.1104  -41.2281 H   0  0  0  0  0  0
  -25.6349   30.4898  -42.9730 H   0  0  0  0  0  0
  -23.2242   31.0957  -38.3771 H   0  0  0  0  0  0
  -25.4682   30.4562  -39.1088 H   0  0  0  0  0  0
  -26.7443   32.1437  -44.7827 H   0  0  0  0  0  0
  -27.6809   34.4084  -44.7777 H   0  0  0  0  0  0
  -23.6262   32.1251  -43.6496 H   0  0  0  0  0  0
  -21.2751   32.8875  -43.7232 H   0  0  0  0  0  0
  -19.8927   32.9010  -41.7062 H   0  0  0  0  0  0
  -20.7943   32.1488  -39.5183 H   0  0  0  0  0  0
  -28.3722   36.4530  -42.8689 H   0  0  0  0  0  0
  -28.2586   36.8977  -40.4243 H   0  0  0  0  0  0
  -27.3437   35.2409  -38.8780 H   0  0  0  0  0  0
  -26.5168   33.0754  -39.6774 H   0  0  0  0  0  0
  1  4  2  0  0  0
  1  3  1  0  0  0
  1  2  1  0  0  0
  2  6  1  0  0  0
  2 29  1  0  0  0
  2 30  1  0  0  0
  3  5  1  0  0  0
  3 31  1  0  0  0
  5 32  1  0  0  0
  6  7  1  0  0  0
  6 33  1  0  0  0
  6 34  1  0  0  0
  7  8  1  0  0  0
  7 35  1  0  0  0
  7 36  1  0  0  0
  8  9  1  0  0  0
  8 37  1  0  0  0
  8 38  1  0  0  0
  9 10  1  0  0  0
  9 39  1  0  0  0
  9 40  1  0  0  0
 10 11  1  0  0  0
 10 12  1  0  0  0
 10 41  1  0  0  0
 11 14  2  0  0  0
 11 18  1  0  0  0
 12 15  2  0  0  0
 12 23  1  0  0  0
 13 14  1  0  0  0
 13 17  1  0  0  0
 13 42  1  0  0  0
 14 43  1  0  0  0
 15 16  1  0  0  0
 15 44  1  0  0  0
 16 24  1  0  0  0
 16 45  1  0  0  0
 17 18  2  0  0  0
 17 22  1  0  0  0
 18 19  1  0  0  0
 19 20  2  0  0  0
 19 46  1  0  0  0
 20 21  1  0  0  0
 20 47  1  0  0  0
 21 22  2  0  0  0
 21 48  1  0  0  0
 22 49  1  0  0  0
 23 24  2  0  0  0
 23 28  1  0  0  0
 24 25  1  0  0  0
 25 26  2  0  0  0
 25 50  1  0  0  0
 26 27  1  0  0  0
 26 51  1  0  0  0
 27 28  2  0  0  0
 27 52  1  0  0  0
 28 53  1  0  0  0
M  END
> <s_m_entry_id>
53025

> <s_m_entry_name>
dock_pv.244

> <s_m_Source_Path>
/home/csk/Desktop/cluster/DUD-E-result/hdac8

> <s_m_Source_File>
dock_pv.maegz

> <i_m_Source_File_Index>
244

> <chembl_id>
CHEMBL564876

> <chembl_pref_name>
None

> <i_lp_mmshare_version>
53161

> <i_f3d_flags>
0

> <r_lp_tautomer_probability>
1

> <s_lp_Force_Field>
OPLS_2005

> <r_lp_Energy>
22.372935

> <b_lp_Chiralities_Consistent>
1

> <s_lp_Variant>
CHEMBL3192_lig153-1

> <s_i_glide_gridfile>
glide-grid_3f07

> <i_i_glide_lignum>
165

> <i_i_glide_rotatable_bonds>
10

> <r_i_docking_score>
-7.41947158189244

> <r_i_glide_ligand_efficiency>
-0.26498112792473

> <r_i_glide_ligand_efficiency_sa>
-0.804638769917669

> <r_i_glide_ligand_efficiency_ln>
-1.71263188625238

> <r_i_glide_gscore>
-7.41947158189244

> <r_i_glide_lipo>
-0.754037656090662

> <r_i_glide_hbond>
-0.304

> <r_i_glide_metal>
-2.3

> <r_i_glide_rewards>
-1.00551432646627

> <r_i_glide_evdw>
-28.0807971954346

> <r_i_glide_ecoul>
-18.2794876098633

> <r_i_glide_erotb>
1.23516133031523

> <r_i_glide_esite>
-0.145117928399517

> <r_i_glide_emodel>
-70.0815649980766

> <r_i_glide_energy>
-46.3602848052979

> <r_i_glide_einternal>
4.67148590087891

> <i_i_glide_confnum>
59

> <i_i_glide_posenum>
178

> <r_i_glide_eff_state_penalty>
0

> <s_user_duplicate_titles>
CHEMBL3192_lig153

> <s_m_subgroup_title>
dock_pv

> <s_m_subgroupid>
dock_pv

> <b_m_subgroup_collapsed>
1

$$$$
CHEMBL3192_lig155
                    3D
 Schrodinger Suite 2021-1.
 57 60  0  0  1  0            999 V2000
  -29.8130   26.4690  -38.3291 C   0  0  0  0  0  0
  -28.4841   27.0844  -38.7812 C   0  0  0  0  0  0
  -30.0425   26.4130  -37.0086 N   0  0  0  0  0  0
  -30.6111   26.0690  -39.1810 O   0  0  0  0  0  0
  -31.2225   25.8013  -36.5641 O   0  0  0  0  0  0
  -28.6117   28.5507  -39.2378 C   0  0  0  0  0  0
  -27.2425   29.1564  -39.5946 C   0  0  0  0  0  0
  -27.3132   30.6528  -39.9510 C   0  0  0  0  0  0
  -25.9304   31.3345  -40.0440 C   0  0  0  0  0  0
  -25.0048   30.8287  -41.1846 C   0  0  0  0  0  0
  -23.6122   31.4656  -41.1273 C   0  0  0  0  0  0
  -25.6233   30.9783  -42.5808 C   0  0  0  0  0  0
  -21.7137   32.5575  -41.7343 N   0  0  0  0  0  0
  -22.9722   32.1905  -42.1237 C   0  0  0  0  0  0
  -25.7180   29.9994  -43.5590 C   0  0  0  0  0  0
  -26.2667   30.5073  -44.7048 N   0  0  0  0  0  0
  -21.4716   32.0963  -40.4641 C   0  0  0  0  0  0
  -22.6562   31.4214  -40.0348 C   0  0  0  0  0  0
  -22.6610   30.8690  -38.7400 C   0  0  0  0  0  0
  -21.5317   30.9905  -37.9114 C   0  0  0  0  0  0
  -20.3922   31.6440  -38.3954 C   0  0  0  0  0  0
  -20.3319   32.2084  -39.6665 C   0  0  0  0  0  0
  -26.2191   32.1569  -43.1776 C   0  0  0  0  0  0
  -26.6129   31.8221  -44.5091 C   0  0  0  0  0  0
  -27.2333   32.7343  -45.3656 C   0  0  0  0  0  0
  -27.4766   34.0103  -44.8613 C   0  0  0  0  0  0
  -27.1084   34.3933  -43.5652 C   0  0  0  0  0  0
  -26.4575   33.4692  -42.7336 C   0  0  0  0  0  0
  -21.5506   30.4689  -36.5209 N   0  3  0  0  0  0
  -20.5023   30.4548  -35.8821 O   0  0  0  0  0  0
  -22.6130   30.0690  -36.0541 O   0  5  0  0  0  0
  -27.4126   35.7610  -43.0713 N   0  3  0  0  0  0
  -27.1823   36.0237  -41.8946 O   0  0  0  0  0  0
  -27.9017   36.5728  -43.8520 O   0  5  0  0  0  0
  -28.0717   26.4695  -39.5809 H   0  0  0  0  0  0
  -27.7574   27.0260  -37.9741 H   0  0  0  0  0  0
  -29.4409   26.7372  -36.2580 H   0  0  0  0  0  0
  -30.9212   24.9686  -36.1887 H   0  0  0  0  0  0
  -29.0592   29.1435  -38.4371 H   0  0  0  0  0  0
  -29.2782   28.6290  -40.0981 H   0  0  0  0  0  0
  -26.8053   28.6000  -40.4249 H   0  0  0  0  0  0
  -26.5638   29.0238  -38.7495 H   0  0  0  0  0  0
  -27.8912   31.1686  -39.1830 H   0  0  0  0  0  0
  -27.8650   30.7886  -40.8822 H   0  0  0  0  0  0
  -25.4361   31.2072  -39.0823 H   0  0  0  0  0  0
  -26.0688   32.4105  -40.1189 H   0  0  0  0  0  0
  -24.8523   29.7644  -41.0038 H   0  0  0  0  0  0
  -21.0873   33.0849  -42.3252 H   0  0  0  0  0  0
  -23.3178   32.4674  -43.1097 H   0  0  0  0  0  0
  -25.4130   28.9636  -43.5508 H   0  0  0  0  0  0
  -26.4019   29.9568  -45.5405 H   0  0  0  0  0  0
  -23.5353   30.3496  -38.3801 H   0  0  0  0  0  0
  -19.5260   31.7450  -37.7563 H   0  0  0  0  0  0
  -19.4447   32.7229  -40.0048 H   0  0  0  0  0  0
  -27.5320   32.4662  -46.3689 H   0  0  0  0  0  0
  -27.9733   34.7226  -45.5067 H   0  0  0  0  0  0
  -26.1440   33.7699  -41.7460 H   0  0  0  0  0  0
  1  3  1  0  0  0
  1  2  1  0  0  0
  1  4  2  0  0  0
  2  6  1  0  0  0
  2 35  1  0  0  0
  2 36  1  0  0  0
  3  5  1  0  0  0
  3 37  1  0  0  0
  5 38  1  0  0  0
  6  7  1  0  0  0
  6 39  1  0  0  0
  6 40  1  0  0  0
  7  8  1  0  0  0
  7 41  1  0  0  0
  7 42  1  0  0  0
  8  9  1  0  0  0
  8 43  1  0  0  0
  8 44  1  0  0  0
  9 10  1  0  0  0
  9 45  1  0  0  0
  9 46  1  0  0  0
 10 11  1  0  0  0
 10 12  1  0  0  0
 10 47  1  0  0  0
 11 18  1  0  0  0
 11 14  2  0  0  0
 12 23  1  0  0  0
 12 15  2  0  0  0
 13 17  1  0  0  0
 13 14  1  0  0  0
 13 48  1  0  0  0
 14 49  1  0  0  0
 15 16  1  0  0  0
 15 50  1  0  0  0
 16 24  1  0  0  0
 16 51  1  0  0  0
 17 18  2  0  0  0
 17 22  1  0  0  0
 18 19  1  0  0  0
 19 20  2  0  0  0
 19 52  1  0  0  0
 20 21  1  0  0  0
 20 29  1  0  0  0
 21 22  2  0  0  0
 21 53  1  0  0  0
 22 54  1  0  0  0
 23 24  2  0  0  0
 23 28  1  0  0  0
 24 25  1  0  0  0
 25 26  2  0  0  0
 25 55  1  0  0  0
 26 27  1  0  0  0
 26 56  1  0  0  0
 27 28  2  0  0  0
 27 32  1  0  0  0
 28 57  1  0  0  0
 29 30  2  0  0  0
 29 31  1  0  0  0
 32 33  2  0  0  0
 32 34  1  0  0  0
M  CHG  4  29   1  31  -1  32   1  34  -1
M  END
> <s_m_entry_id>
53026

> <s_m_entry_name>
dock_pv.245

> <s_m_Source_Path>
/home/csk/Desktop/cluster/DUD-E-result/hdac8

> <s_m_Source_File>
dock_pv.maegz

> <i_m_Source_File_Index>
245

> <chembl_id>
CHEMBL561604

> <chembl_pref_name>
None

> <i_lp_mmshare_version>
53161

> <i_f3d_flags>
0

> <r_lp_tautomer_probability>
1

> <s_lp_Force_Field>
OPLS_2005

> <r_lp_Energy>
14.759281

> <b_lp_Chiralities_Consistent>
1

> <s_lp_Variant>
CHEMBL3192_lig155-1

> <s_i_glide_gridfile>
glide-grid_3f07

> <i_i_glide_lignum>
167

> <i_i_glide_rotatable_bonds>
12

> <r_i_docking_score>
-7.41675242340607

> <r_i_glide_ligand_efficiency>
-0.218139777159002

> <r_i_glide_ligand_efficiency_sa>
-0.706688195581665

> <r_i_glide_ligand_efficiency_ln>
-1.63856864318934

> <r_i_glide_gscore>
-7.41675242340607

> <r_i_glide_lipo>
-1.02649809744177

> <r_i_glide_hbond>
-0.529724915537429

> <r_i_glide_metal>
-2.3

> <r_i_glide_rewards>
-0.299556358954919

> <r_i_glide_evdw>
-37.9881935119629

> <r_i_glide_ecoul>
-13.4683084487915

> <r_i_glide_erotb>
0.83777363194886

> <r_i_glide_esite>
-0.179090740503949

> <r_i_glide_emodel>
-77.0000955535838

> <r_i_glide_energy>
-51.4565019607544

> <r_i_glide_einternal>
5.95160293579102

> <i_i_glide_confnum>
13

> <i_i_glide_posenum>
36

> <r_i_glide_eff_state_penalty>
0

> <s_user_duplicate_titles>
CHEMBL3192_lig155

> <s_m_subgroup_title>
dock_pv

> <s_m_subgroupid>
dock_pv

> <b_m_subgroup_collapsed>
1

$$$$
CHEMBL3192_lig1
                    3D
 Schrodinger Suite 2021-1.
 54 56  0  0  1  0            999 V2000
  -27.1929   32.8250  -41.2101 C   0  0  0  0  0  0
  -26.7396   34.0829  -41.0250 C   0  0  0  0  0  0
  -27.0541   35.2191  -41.8972 C   0  0  0  0  0  0
  -27.8243   35.0386  -43.1794 C   0  0  0  0  0  0
  -26.8109   36.3517  -41.4793 O   0  0  0  0  0  0
  -27.4434   34.1537  -44.2243 C   0  0  0  0  0  0
  -28.2792   34.0579  -45.3506 C   0  0  0  0  0  0
  -29.4381   34.8192  -45.4687 C   0  0  0  0  0  0
  -29.7844   35.7077  -44.4594 C   0  0  0  0  0  0
  -28.9804   35.8228  -43.3292 C   0  0  0  0  0  0
  -26.2629   33.4080  -44.1950 N   0  0  0  0  0  0
  -26.1164   32.1288  -44.9202 C   0  0  0  0  0  0
  -24.9223   31.2716  -44.4335 C   0  0  0  0  0  0
  -23.6764   32.0314  -44.5282 N   0  0  0  0  0  0
  -23.8011   33.2047  -43.6632 C   0  0  0  0  0  0
  -24.9598   34.1040  -44.1498 C   0  0  0  0  0  0
  -22.5413   31.2191  -44.1063 C   0  0  0  0  0  0
  -25.7402   31.5831  -39.5817 C   0  0  0  0  0  0
  -26.8986   31.6596  -40.3621 C   0  0  0  0  0  0
  -27.8181   30.6055  -40.3163 C   0  0  0  0  0  0
  -27.6038   29.4889  -39.4996 C   0  0  0  0  0  0
  -26.4341   29.4318  -38.7393 C   0  0  0  0  0  0
  -25.5049   30.4690  -38.7810 C   0  0  0  0  0  0
  -28.6327   28.4343  -39.4490 C   0  0  0  0  0  0
  -28.7352   27.4167  -38.5594 C   0  0  0  0  0  0
  -29.8264   26.4723  -38.6252 C   0  0  0  0  0  0
  -29.9556   25.6689  -37.5583 N   0  0  0  0  0  0
  -30.6130   26.4690  -39.5810 O   0  0  0  0  0  0
  -31.0023   24.7303  -37.5482 O   0  0  0  0  0  0
  -27.8129   32.6055  -42.0612 H   0  0  0  0  0  0
  -26.1098   34.3156  -40.1757 H   0  0  0  0  0  0
  -28.0256   33.4018  -46.1693 H   0  0  0  0  0  0
  -30.0586   34.7284  -46.3491 H   0  0  0  0  0  0
  -30.6758   36.3108  -44.5540 H   0  0  0  0  0  0
  -29.2753   36.5255  -42.5608 H   0  0  0  0  0  0
  -27.0318   31.5435  -44.8239 H   0  0  0  0  0  0
  -25.9653   32.3383  -45.9808 H   0  0  0  0  0  0
  -24.8478   30.3791  -45.0558 H   0  0  0  0  0  0
  -25.0951   30.9293  -43.4104 H   0  0  0  0  0  0
  -23.9661   32.9116  -42.6240 H   0  0  0  0  0  0
  -22.8717   33.7760  -43.6831 H   0  0  0  0  0  0
  -24.9955   35.0023  -43.5364 H   0  0  0  0  0  0
  -24.7195   34.4389  -45.1611 H   0  0  0  0  0  0
  -22.6518   30.8687  -43.0789 H   0  0  0  0  0  0
  -21.6150   31.7915  -44.1712 H   0  0  0  0  0  0
  -22.4275   30.3542  -44.7592 H   0  0  0  0  0  0
  -25.0129   32.3836  -39.5847 H   0  0  0  0  0  0
  -28.7190   30.6641  -40.9117 H   0  0  0  0  0  0
  -26.2319   28.5825  -38.1061 H   0  0  0  0  0  0
  -24.6039   30.4158  -38.1864 H   0  0  0  0  0  0
  -29.3766   28.5202  -40.2293 H   0  0  0  0  0  0
  -28.0202   27.2827  -37.7608 H   0  0  0  0  0  0
  -29.3711   25.6248  -36.7353 H   0  0  0  0  0  0
  -30.5451   23.8789  -37.5901 H   0  0  0  0  0  0
  1  2  2  0  0  0
  1 19  1  0  0  0
  1 30  1  0  0  0
  2  3  1  0  0  0
  2 31  1  0  0  0
  3  5  2  0  0  0
  3  4  1  0  0  0
  4 10  1  0  0  0
  4  6  2  0  0  0
  6 11  1  0  0  0
  6  7  1  0  0  0
  7  8  2  0  0  0
  7 32  1  0  0  0
  8  9  1  0  0  0
  8 33  1  0  0  0
  9 10  2  0  0  0
  9 34  1  0  0  0
 10 35  1  0  0  0
 11 12  1  0  0  0
 11 16  1  0  0  0
 12 13  1  0  0  0
 12 36  1  0  0  0
 12 37  1  0  0  0
 13 14  1  0  0  0
 13 38  1  0  0  0
 13 39  1  0  0  0
 14 15  1  0  0  0
 14 17  1  0  0  0
 15 16  1  0  0  0
 15 40  1  0  0  0
 15 41  1  0  0  0
 16 42  1  0  0  0
 16 43  1  0  0  0
 17 44  1  0  0  0
 17 45  1  0  0  0
 17 46  1  0  0  0
 18 19  2  0  0  0
 18 23  1  0  0  0
 18 47  1  0  0  0
 19 20  1  0  0  0
 20 21  2  0  0  0
 20 48  1  0  0  0
 21 22  1  0  0  0
 21 24  1  0  0  0
 22 23  2  0  0  0
 22 49  1  0  0  0
 23 50  1  0  0  0
 24 25  2  0  0  0
 24 51  1  0  0  0
 25 26  1  0  0  0
 25 52  1  0  0  0
 26 27  1  0  0  0
 26 28  2  0  0  0
 27 29  1  0  0  0
 27 53  1  0  0  0
 29 54  1  0  0  0
M  END
> <s_m_entry_id>
53027

> <s_m_entry_name>
dock_pv.246

> <s_m_Source_Path>
/home/csk/Desktop/cluster/DUD-E-result/hdac8

> <s_m_Source_File>
dock_pv.maegz

> <i_m_Source_File_Index>
246

> <chembl_id>
CHEMBL570215

> <chembl_pref_name>
None

> <i_lp_mmshare_version>
53161

> <i_f3d_flags>
0

> <r_lp_tautomer_probability>
1

> <s_lp_Force_Field>
OPLS_2005

> <r_lp_Energy>
55.595917

> <b_lp_Chiralities_Consistent>
1

> <s_lp_Variant>
CHEMBL3192_lig1-1

> <s_i_glide_gridfile>
glide-grid_3f07

> <i_i_glide_lignum>
1

> <i_i_glide_rotatable_bonds>
8

> <r_i_docking_score>
-7.4160677058597

> <r_i_glide_ligand_efficiency>
-0.255726472615852

> <r_i_glide_ligand_efficiency_sa>
-0.785672743709108

> <r_i_glide_ligand_efficiency_ln>
-1.6980914493907

> <r_i_glide_gscore>
-7.4160677058597

> <r_i_glide_lipo>
-0.984144157872756

> <r_i_glide_hbond>
-0.305703523742302

> <r_i_glide_metal>
-2.3

> <r_i_glide_rewards>
-0.978104461763389

> <r_i_glide_evdw>
-28.8726005554199

> <r_i_glide_ecoul>
-14.3512134552002

> <r_i_glide_erotb>
0.891420826309403

> <r_i_glide_esite>
-0.143224342739631

> <r_i_glide_emodel>
-63.3705136510988

> <r_i_glide_energy>
-43.2238140106201

> <r_i_glide_einternal>
7.38759469985962

> <i_i_glide_confnum>
5

> <i_i_glide_posenum>
169

> <r_i_glide_eff_state_penalty>
0

> <s_user_duplicate_titles>
CHEMBL3192_lig1

> <s_m_subgroup_title>
dock_pv

> <s_m_subgroupid>
dock_pv

> <b_m_subgroup_collapsed>
1

$$$$
CHEMBL3192_lig850
                    3D
 Schrodinger Suite 2021-1.
 51 53  0  0  1  0            999 V2000
  -23.7871   35.2687  -39.9810 O   0  0  0  0  0  0
  -24.3604   34.2937  -40.8364 C   0  0  0  0  0  0
  -25.8423   34.5999  -41.1577 C   0  0  2  0  0  0
  -26.6201   34.4851  -39.9810 O   0  0  0  0  0  0
  -26.4665   33.7142  -42.2746 C   0  0  0  0  0  0
  -26.3390   32.2673  -42.0289 N   0  0  0  0  0  0
  -25.4227   31.3841  -42.5801 C   0  0  0  0  0  0
  -24.3916   31.7796  -43.6359 C   0  0  0  0  0  0
  -22.9961   31.1515  -43.4424 C   0  0  0  0  0  0
  -22.2307   31.7157  -42.2475 C   0  0  0  0  0  0
  -21.2457   32.6859  -42.4557 C   0  0  0  0  0  0
  -20.5576   33.2263  -41.3722 C   0  0  0  0  0  0
  -20.8527   32.7922  -40.0820 C   0  0  0  0  0  0
  -21.8256   31.8203  -39.8648 C   0  0  0  0  0  0
  -22.5157   31.2824  -40.9472 C   0  0  0  0  0  0
  -25.5630   30.1534  -42.1349 N   0  0  0  0  0  0
  -26.5835   30.2093  -41.2264 C   0  0  0  0  0  0
  -27.1295   29.1937  -40.4182 C   0  0  0  0  0  0
  -28.2128   29.5048  -39.5849 C   0  0  0  0  0  0
  -28.9143   28.5058  -38.7523 C   0  0  0  0  0  0
  -28.9661   27.1721  -38.9600 C   0  0  0  0  0  0
  -29.8127   26.2806  -38.1998 C   0  0  0  0  0  0
  -30.5009   25.4373  -38.7809 O   0  0  0  0  0  0
  -29.8162   26.4690  -36.8707 N   0  0  0  0  0  0
  -30.6351   25.6448  -36.0853 O   0  0  0  0  0  0
  -28.7345   30.8000  -39.5810 C   0  0  0  0  0  0
  -28.2128   31.8252  -40.3696 C   0  0  0  0  0  0
  -27.1189   31.5151  -41.1719 C   0  0  0  0  0  0
  -23.7482   34.8993  -39.0823 H   0  0  0  0  0  0
  -24.2619   33.3157  -40.3663 H   0  0  0  0  0  0
  -23.7732   34.2720  -41.7537 H   0  0  0  0  0  0
  -25.9132   35.6436  -41.4687 H   0  0  0  0  0  0
  -26.0151   34.4689  -39.2213 H   0  0  0  0  0  0
  -26.0284   33.9605  -43.2400 H   0  0  0  0  0  0
  -27.5269   33.9431  -42.3836 H   0  0  0  0  0  0
  -24.7715   31.4954  -44.6173 H   0  0  0  0  0  0
  -24.2474   32.8564  -43.6945 H   0  0  0  0  0  0
  -23.0770   30.0700  -43.3766 H   0  0  0  0  0  0
  -22.4016   31.3165  -44.3429 H   0  0  0  0  0  0
  -21.0137   33.0297  -43.4539 H   0  0  0  0  0  0
  -19.8019   33.9823  -41.5288 H   0  0  0  0  0  0
  -20.3341   33.2224  -39.2367 H   0  0  0  0  0  0
  -22.0571   31.5024  -38.8582 H   0  0  0  0  0  0
  -23.2768   30.5370  -40.7686 H   0  0  0  0  0  0
  -26.7265   28.1933  -40.4535 H   0  0  0  0  0  0
  -29.4479   28.9197  -37.9093 H   0  0  0  0  0  0
  -28.4017   26.7125  -39.7533 H   0  0  0  0  0  0
  -29.2303   27.1009  -36.3273 H   0  0  0  0  0  0
  -30.0133   25.0653  -35.6345 H   0  0  0  0  0  0
  -29.5807   31.0229  -38.9467 H   0  0  0  0  0  0
  -28.6101   32.8240  -40.3428 H   0  0  0  0  0  0
  1  2  1  0  0  0
  1 29  1  0  0  0
  2  3  1  0  0  0
  2 30  1  0  0  0
  2 31  1  0  0  0
  3  4  1  0  0  0
  3  5  1  0  0  0
  3 32  1  0  0  0
  4 33  1  0  0  0
  5  6  1  0  0  0
  5 34  1  0  0  0
  5 35  1  0  0  0
  6  7  1  0  0  0
  6 28  1  0  0  0
  7  8  1  0  0  0
  7 16  2  0  0  0
  8  9  1  0  0  0
  8 36  1  0  0  0
  8 37  1  0  0  0
  9 10  1  0  0  0
  9 38  1  0  0  0
  9 39  1  0  0  0
 10 11  2  0  0  0
 10 15  1  0  0  0
 11 12  1  0  0  0
 11 40  1  0  0  0
 12 13  2  0  0  0
 12 41  1  0  0  0
 13 14  1  0  0  0
 13 42  1  0  0  0
 14 15  2  0  0  0
 14 43  1  0  0  0
 15 44  1  0  0  0
 16 17  1  0  0  0
 17 18  2  0  0  0
 17 28  1  0  0  0
 18 19  1  0  0  0
 18 45  1  0  0  0
 19 20  1  0  0  0
 19 26  2  0  0  0
 20 21  2  0  0  0
 20 46  1  0  0  0
 21 22  1  0  0  0
 21 47  1  0  0  0
 22 23  2  0  0  0
 22 24  1  0  0  0
 24 25  1  0  0  0
 24 48  1  0  0  0
 25 49  1  0  0  0
 26 27  1  0  0  0
 26 50  1  0  0  0
 27 28  2  0  0  0
 27 51  1  0  0  0
M  END
> <s_m_entry_id>
53028

> <s_m_entry_name>
dock_pv.247

> <s_m_Source_Path>
/home/csk/Desktop/cluster/DUD-E-result/hdac8

> <s_m_Source_File>
dock_pv.maegz

> <i_m_Source_File_Index>
247

> <chembl_id>
CHEMBL3645371

> <chembl_pref_name>
None

> <i_lp_mmshare_version>
53161

> <i_f3d_flags>
0

> <r_lp_tautomer_probability>
1

> <s_lp_Force_Field>
OPLS_2005

> <r_lp_Energy>
30.337204

> <b_lp_Chiralities_Consistent>
1

> <s_lp_Variant>
CHEMBL3192_lig850-1

> <s_i_glide_gridfile>
glide-grid_3f07

> <i_i_glide_lignum>
907

> <i_i_glide_rotatable_bonds>
12

> <r_i_docking_score>
-7.41368674364426

> <r_i_glide_ligand_efficiency>
-0.264774526558724

> <r_i_glide_ligand_efficiency_sa>
-0.804011406488776

> <r_i_glide_ligand_efficiency_ln>
-1.71129657573447

> <r_i_glide_gscore>
-7.41368674364426

> <r_i_glide_lipo>
-0.711593510540367

> <r_i_glide_hbond>
-0.32

> <r_i_glide_metal>
-2.3

> <r_i_glide_rewards>
-1.13376081260284

> <r_i_glide_evdw>
-27.9548721313477

> <r_i_glide_ecoul>
-17.4406452178955

> <r_i_glide_erotb>
1.20080022057308

> <r_i_glide_esite>
-0.135292251822422

> <r_i_glide_emodel>
-68.0191260904343

> <r_i_glide_energy>
-45.3955173492432

> <r_i_glide_einternal>
5.86093759536743

> <i_i_glide_confnum>
24

> <i_i_glide_posenum>
341

> <r_i_glide_eff_state_penalty>
0

> <s_user_duplicate_titles>
CHEMBL3192_lig850

> <s_m_subgroup_title>
dock_pv

> <s_m_subgroupid>
dock_pv

> <b_m_subgroup_collapsed>
1

$$$$
CHEMBL3192_lig195
                    3D
 Schrodinger Suite 2021-1.
 62 64  0  0  1  0            999 V2000
  -28.4898   30.9244  -39.5810 C   0  0  0  0  0  0
  -28.1323   29.5937  -39.7337 C   0  0  0  0  0  0
  -27.2695   29.2691  -40.7876 C   0  0  0  0  0  0
  -27.9606   31.9153  -40.3996 C   0  0  0  0  0  0
  -27.1600   31.5882  -41.4911 C   0  0  0  0  0  0
  -26.8504   30.2319  -41.7239 C   0  0  0  0  0  0
  -26.8077   32.0589  -43.9096 C   0  0  2  0  0  0
  -26.7189   32.6604  -42.4876 C   0  0  0  0  0  0
  -25.8303   30.9307  -43.9295 N   0  0  0  0  0  0
  -26.2138   29.8014  -43.0577 C   0  0  0  0  0  0
  -24.4708   30.9965  -44.3140 C   0  0  0  0  0  0
  -24.0807   32.2599  -44.6345 O   0  0  0  0  0  0
  -22.8108   32.6303  -45.1937 C   0  0  0  0  0  0
  -22.9328   34.1514  -45.4044 C   0  0  0  0  0  0
  -22.5772   31.9453  -46.5617 C   0  0  0  0  0  0
  -21.6510   32.3346  -44.2146 C   0  0  0  0  0  0
  -26.7701   33.0837  -45.0700 C   0  0  0  0  0  0
  -26.6270   34.2850  -44.8429 O   0  0  0  0  0  0
  -26.9532   32.5388  -46.2909 N   0  0  0  0  0  0
  -27.1136   33.1548  -47.5478 C   0  0  0  0  0  0
  -26.9791   32.3483  -48.6952 C   0  0  0  0  0  0
  -27.1773   32.9060  -49.9629 C   0  0  0  0  0  0
  -27.5069   34.2524  -50.1005 C   0  0  0  0  0  0
  -27.6418   35.0540  -48.9704 C   0  0  0  0  0  0
  -27.4492   34.5113  -47.7012 C   0  0  0  0  0  0
  -27.8129   31.6690  -44.0519 H   0  0  0  0  0  0
  -28.7227   28.7167  -38.8406 O   0  0  0  0  0  0
  -28.3307   27.3485  -38.7093 C   0  0  0  0  0  0
  -29.6040   26.4817  -38.6287 C   0  0  0  0  0  0
  -30.3913   26.4690  -39.5810 O   0  0  0  0  0  0
  -29.8130   25.7547  -37.5207 N   0  0  0  0  0  0
  -30.9036   24.8691  -37.4992 O   0  0  0  0  0  0
  -23.7176   30.0243  -44.3808 O   0  0  0  0  0  0
  -26.6224   30.8691  -48.5965 C   0  0  0  0  0  0
  -29.1613   31.1960  -38.7811 H   0  0  0  0  0  0
  -26.9986   28.2438  -40.9675 H   0  0  0  0  0  0
  -28.2128   32.9484  -40.2189 H   0  0  0  0  0  0
  -25.7016   32.9868  -42.2614 H   0  0  0  0  0  0
  -27.3568   33.5415  -42.3948 H   0  0  0  0  0  0
  -26.9676   29.2713  -43.6319 H   0  0  0  0  0  0
  -25.4141   29.0871  -42.8774 H   0  0  0  0  0  0
  -23.1229   34.6695  -44.4634 H   0  0  0  0  0  0
  -22.0247   34.5731  -45.8355 H   0  0  0  0  0  0
  -23.7600   34.3957  -46.0728 H   0  0  0  0  0  0
  -22.4369   30.8695  -46.4621 H   0  0  0  0  0  0
  -23.4236   32.1026  -47.2315 H   0  0  0  0  0  0
  -21.6877   32.3380  -47.0552 H   0  0  0  0  0  0
  -21.5047   31.2661  -44.0583 H   0  0  0  0  0  0
  -20.7074   32.7331  -44.5876 H   0  0  0  0  0  0
  -21.8346   32.7818  -43.2372 H   0  0  0  0  0  0
  -26.9541   31.5317  -46.3262 H   0  0  0  0  0  0
  -27.0821   32.2955  -50.8493 H   0  0  0  0  0  0
  -27.6612   34.6736  -51.0831 H   0  0  0  0  0  0
  -27.9048   36.0963  -49.0760 H   0  0  0  0  0  0
  -27.5883   35.1605  -46.8513 H   0  0  0  0  0  0
  -27.7112   26.9552  -39.5124 H   0  0  0  0  0  0
  -27.7403   27.2689  -37.7972 H   0  0  0  0  0  0
  -29.2406   25.7079  -36.6883 H   0  0  0  0  0  0
  -30.4924   23.9960  -37.5662 H   0  0  0  0  0  0
  -25.6977   30.7401  -48.0329 H   0  0  0  0  0  0
  -27.4121   30.3307  -48.0721 H   0  0  0  0  0  0
  -26.4862   30.4100  -49.5756 H   0  0  0  0  0  0
  1  4  1  0  0  0
  1  2  2  0  0  0
  1 35  1  0  0  0
  2  3  1  0  0  0
  2 27  1  0  0  0
  3  6  2  0  0  0
  3 36  1  0  0  0
  4  5  2  0  0  0
  4 37  1  0  0  0
  5  6  1  0  0  0
  5  8  1  0  0  0
  6 10  1  0  0  0
  7 17  1  0  0  0
  7  8  1  0  0  0
  7  9  1  0  0  0
  7 26  1  0  0  0
  8 38  1  0  0  0
  8 39  1  0  0  0
  9 10  1  0  0  0
  9 11  1  0  0  0
 10 40  1  0  0  0
 10 41  1  0  0  0
 11 12  1  0  0  0
 11 33  2  0  0  0
 12 13  1  0  0  0
 13 14  1  0  0  0
 13 15  1  0  0  0
 13 16  1  0  0  0
 14 42  1  0  0  0
 14 43  1  0  0  0
 14 44  1  0  0  0
 15 45  1  0  0  0
 15 46  1  0  0  0
 15 47  1  0  0  0
 16 48  1  0  0  0
 16 49  1  0  0  0
 16 50  1  0  0  0
 17 18  2  0  0  0
 17 19  1  0  0  0
 19 20  1  0  0  0
 19 51  1  0  0  0
 20 21  2  0  0  0
 20 25  1  0  0  0
 21 22  1  0  0  0
 21 34  1  0  0  0
 22 23  2  0  0  0
 22 52  1  0  0  0
 23 24  1  0  0  0
 23 53  1  0  0  0
 24 25  2  0  0  0
 24 54  1  0  0  0
 25 55  1  0  0  0
 27 28  1  0  0  0
 28 29  1  0  0  0
 28 56  1  0  0  0
 28 57  1  0  0  0
 29 30  2  0  0  0
 29 31  1  0  0  0
 31 32  1  0  0  0
 31 58  1  0  0  0
 32 59  1  0  0  0
 34 60  1  0  0  0
 34 61  1  0  0  0
 34 62  1  0  0  0
M  END
> <s_m_entry_id>
53029

> <s_m_entry_name>
dock_pv.248

> <s_m_Source_Path>
/home/csk/Desktop/cluster/DUD-E-result/hdac8

> <s_m_Source_File>
dock_pv.maegz

> <i_m_Source_File_Index>
248

> <chembl_id>
CHEMBL599461

> <chembl_pref_name>
None

> <i_lp_mmshare_version>
53161

> <i_f3d_flags>
0

> <r_lp_tautomer_probability>
1

> <s_lp_Force_Field>
OPLS_2005

> <r_lp_Energy>
45.445848

> <b_lp_Chiralities_Consistent>
1

> <s_lp_Variant>
CHEMBL3192_lig195-1

> <s_i_glide_gridfile>
glide-grid_3f07

> <i_i_glide_lignum>
205

> <i_i_glide_rotatable_bonds>
11

> <r_i_docking_score>
-7.40349291390151

> <r_i_glide_ligand_efficiency>
-0.224348270118228

> <r_i_glide_ligand_efficiency_sa>
-0.71960477744069

> <r_i_glide_ligand_efficiency_ln>
-1.64649849081694

> <r_i_glide_gscore>
-7.40349291390151

> <r_i_glide_lipo>
-0.771980427424021

> <r_i_glide_hbond>
-0.583794547218242

> <r_i_glide_metal>
-2.3

> <r_i_glide_rewards>
-0.62246539858192

> <r_i_glide_evdw>
-31.4047336578369

> <r_i_glide_ecoul>
-15.1877412796021

> <r_i_glide_erotb>
0.871424912994655

> <r_i_glide_esite>
-0.148279578839829

> <r_i_glide_emodel>
-51.2067945419891

> <r_i_glide_energy>
-46.592474937439

> <r_i_glide_einternal>
33.7503089904785

> <i_i_glide_confnum>
2

> <i_i_glide_posenum>
284

> <r_i_glide_eff_state_penalty>
0

> <s_user_duplicate_titles>
CHEMBL3192_lig195

> <s_m_subgroup_title>
dock_pv

> <s_m_subgroupid>
dock_pv

> <b_m_subgroup_collapsed>
1

$$$$
CHEMBL3192_lig823
                    3D
 Schrodinger Suite 2021-1.
 60 62  0  0  1  0            999 V2000
  -26.0742   29.1806  -44.3072 C   0  0  0  0  0  0
  -25.8786   30.6954  -44.4346 C   0  0  0  0  0  0
  -24.6009   31.1103  -43.8435 N   0  0  0  0  0  0
  -23.4232   30.7468  -44.6468 C   0  0  0  0  0  0
  -23.3140   31.4358  -46.0208 C   0  0  0  0  0  0
  -24.5891   32.5264  -43.4519 C   0  0  0  0  0  0
  -25.4818   32.8630  -42.2263 C   0  0  0  0  0  0
  -25.3134   31.9254  -41.1078 N   0  0  0  0  0  0
  -24.2417   31.8513  -40.2308 C   0  0  0  0  0  0
  -23.1004   32.8688  -40.2370 C   0  0  0  0  0  0
  -21.7683   32.4224  -39.5810 C   0  0  0  0  0  0
  -20.8035   31.5682  -40.4027 C   0  0  0  0  0  0
  -19.8047   30.8690  -39.7197 C   0  0  0  0  0  0
  -18.8801   30.0975  -40.4197 C   0  0  0  0  0  0
  -18.9456   30.0363  -41.8091 C   0  0  0  0  0  0
  -19.9203   30.7487  -42.5022 C   0  0  0  0  0  0
  -20.8481   31.5145  -41.8007 C   0  0  0  0  0  0
  -24.3875   30.9119  -39.3228 N   0  0  0  0  0  0
  -25.6284   30.3840  -39.5527 C   0  0  0  0  0  0
  -26.3144   29.3874  -38.8403 C   0  0  0  0  0  0
  -27.5839   28.9836  -39.2722 C   0  0  0  0  0  0
  -28.2762   27.8967  -38.5345 C   0  0  0  0  0  0
  -29.3830   27.2334  -38.9451 C   0  0  0  0  0  0
  -30.0697   26.2056  -38.1911 C   0  0  0  0  0  0
  -30.6130   25.2698  -38.7810 O   0  0  0  0  0  0
  -30.1510   26.4057  -36.8640 N   0  0  0  0  0  0
  -30.8433   25.4620  -36.0924 O   0  0  0  0  0  0
  -28.1575   29.6068  -40.3900 C   0  0  0  0  0  0
  -27.5062   30.6046  -41.1188 C   0  0  0  0  0  0
  -26.2339   30.9836  -40.6796 C   0  0  0  0  0  0
  -27.0130   28.8781  -44.7713 H   0  0  0  0  0  0
  -25.2781   28.6099  -44.7810 H   0  0  0  0  0  0
  -26.0963   28.8855  -43.2580 H   0  0  0  0  0  0
  -26.7124   31.1787  -43.9277 H   0  0  0  0  0  0
  -25.9511   31.0075  -45.4764 H   0  0  0  0  0  0
  -22.5276   30.9677  -44.0675 H   0  0  0  0  0  0
  -23.3985   29.6690  -44.7810 H   0  0  0  0  0  0
  -22.3821   31.1510  -46.5102 H   0  0  0  0  0  0
  -24.1262   31.1517  -46.6886 H   0  0  0  0  0  0
  -23.3111   32.5220  -45.9332 H   0  0  0  0  0  0
  -24.8992   33.1415  -44.2985 H   0  0  0  0  0  0
  -23.5686   32.8409  -43.2373 H   0  0  0  0  0  0
  -26.5333   32.8896  -42.5098 H   0  0  0  0  0  0
  -25.2514   33.8631  -41.8573 H   0  0  0  0  0  0
  -22.9061   33.2854  -41.2200 H   0  0  0  0  0  0
  -23.4522   33.7343  -39.6751 H   0  0  0  0  0  0
  -21.2104   33.3179  -39.3033 H   0  0  0  0  0  0
  -21.9831   31.9181  -38.6377 H   0  0  0  0  0  0
  -19.7463   30.9183  -38.6418 H   0  0  0  0  0  0
  -18.1154   29.5513  -39.8869 H   0  0  0  0  0  0
  -18.2288   29.4399  -42.3543 H   0  0  0  0  0  0
  -19.9565   30.7079  -43.5810 H   0  0  0  0  0  0
  -21.5855   32.0652  -42.3588 H   0  0  0  0  0  0
  -25.8464   28.9215  -37.9875 H   0  0  0  0  0  0
  -27.8387   27.6382  -37.5810 H   0  0  0  0  0  0
  -29.8135   27.4417  -39.9101 H   0  0  0  0  0  0
  -29.6879   27.1211  -36.3135 H   0  0  0  0  0  0
  -30.1465   24.9881  -35.6283 H   0  0  0  0  0  0
  -29.1409   29.3166  -40.7259 H   0  0  0  0  0  0
  -27.9697   31.0550  -41.9810 H   0  0  0  0  0  0
  1  2  1  0  0  0
  1 31  1  0  0  0
  1 32  1  0  0  0
  1 33  1  0  0  0
  2  3  1  0  0  0
  2 34  1  0  0  0
  2 35  1  0  0  0
  3  4  1  0  0  0
  3  6  1  0  0  0
  4  5  1  0  0  0
  4 36  1  0  0  0
  4 37  1  0  0  0
  5 38  1  0  0  0
  5 39  1  0  0  0
  5 40  1  0  0  0
  6  7  1  0  0  0
  6 41  1  0  0  0
  6 42  1  0  0  0
  7  8  1  0  0  0
  7 43  1  0  0  0
  7 44  1  0  0  0
  8  9  1  0  0  0
  8 30  1  0  0  0
  9 10  1  0  0  0
  9 18  2  0  0  0
 10 11  1  0  0  0
 10 45  1  0  0  0
 10 46  1  0  0  0
 11 12  1  0  0  0
 11 47  1  0  0  0
 11 48  1  0  0  0
 12 13  2  0  0  0
 12 17  1  0  0  0
 13 14  1  0  0  0
 13 49  1  0  0  0
 14 15  2  0  0  0
 14 50  1  0  0  0
 15 16  1  0  0  0
 15 51  1  0  0  0
 16 17  2  0  0  0
 16 52  1  0  0  0
 17 53  1  0  0  0
 18 19  1  0  0  0
 19 20  2  0  0  0
 19 30  1  0  0  0
 20 21  1  0  0  0
 20 54  1  0  0  0
 21 22  1  0  0  0
 21 28  2  0  0  0
 22 23  2  0  0  0
 22 55  1  0  0  0
 23 24  1  0  0  0
 23 56  1  0  0  0
 24 25  2  0  0  0
 24 26  1  0  0  0
 26 27  1  0  0  0
 26 57  1  0  0  0
 27 58  1  0  0  0
 28 29  1  0  0  0
 28 59  1  0  0  0
 29 30  2  0  0  0
 29 60  1  0  0  0
M  END
> <s_m_entry_id>
53030

> <s_m_entry_name>
dock_pv.249

> <s_m_Source_Path>
/home/csk/Desktop/cluster/DUD-E-result/hdac8

> <s_m_Source_File>
dock_pv.maegz

> <i_m_Source_File_Index>
249

> <chembl_id>
CHEMBL491491

> <chembl_pref_name>
None

> <i_lp_mmshare_version>
53161

> <i_f3d_flags>
0

> <r_lp_tautomer_probability>
1

> <s_lp_Force_Field>
OPLS_2005

> <r_lp_Energy>
33.438209

> <b_lp_Chiralities_Consistent>
1

> <s_lp_Variant>
CHEMBL3192_lig823-1

> <s_i_glide_gridfile>
glide-grid_3f07

> <i_i_glide_lignum>
878

> <i_i_glide_rotatable_bonds>
12

> <r_i_docking_score>
-7.39985727234773

> <r_i_glide_ligand_efficiency>
-0.246661909078258

> <r_i_glide_ligand_efficiency_sa>
-0.766435900999664

> <r_i_glide_ligand_efficiency_ln>
-1.68132820018018

> <r_i_glide_gscore>
-7.39985727234773

> <r_i_glide_lipo>
-1.42370851154296

> <r_i_glide_hbond>
-0.32

> <r_i_glide_metal>
-2.3

> <r_i_glide_rewards>
-0.857269648043216

> <r_i_glide_evdw>
-38.7561874389648

> <r_i_glide_ecoul>
-9.66747188568115

> <r_i_glide_erotb>
1.0708506959337

> <r_i_glide_esite>
-0.181799653894835

> <r_i_glide_emodel>
-69.5913030188059

> <r_i_glide_energy>
-48.423659324646

> <r_i_glide_einternal>
9.19202709197998

> <i_i_glide_confnum>
2

> <i_i_glide_posenum>
37

> <r_i_glide_eff_state_penalty>
0

> <s_user_duplicate_titles>
CHEMBL3192_lig823

> <s_m_subgroup_title>
dock_pv

> <s_m_subgroupid>
dock_pv

> <b_m_subgroup_collapsed>
1

$$$$
CHEMBL3192_lig508
                    3D
 Schrodinger Suite 2021-1.
 49 51  0  0  1  0            999 V2000
  -27.8151   32.7681  -47.2383 C   0  0  0  0  0  0
  -27.6248   34.1285  -47.4786 C   0  0  0  0  0  0
  -26.6302   34.8555  -46.8301 C   0  0  0  0  0  0
  -25.7789   34.2479  -45.9076 C   0  0  0  0  0  0
  -26.9643   32.1645  -46.3064 C   0  0  0  0  0  0
  -25.9355   32.8792  -45.6284 C   0  0  0  0  0  0
  -25.2606   31.9497  -44.7582 C   0  0  0  0  0  0
  -25.9002   30.7283  -44.9169 C   0  0  0  0  0  0
  -26.9033   30.8730  -45.8440 N   0  0  0  0  0  0
  -25.6600   29.3924  -44.2519 C   0  0  0  0  0  0
  -24.0961   32.2707  -43.8343 C   0  0  0  0  0  0
  -24.4333   32.1595  -42.3342 C   0  0  0  0  0  0
  -25.5717   33.0057  -41.9845 N   0  0  1  0  0  0
  -25.8762   32.9586  -40.5580 C   0  0  0  0  0  0
  -26.4584   31.6204  -40.1146 C   0  0  0  0  0  0
  -25.7699   30.8535  -39.1782 C   0  0  0  0  0  0
  -26.3256   29.6678  -38.7143 C   0  0  0  0  0  0
  -27.5828   29.2418  -39.1504 C   0  0  0  0  0  0
  -28.2511   29.9952  -40.1254 C   0  0  0  0  0  0
  -27.6886   31.1771  -40.6061 C   0  0  0  0  0  0
  -28.1842   28.0515  -38.5048 C   0  0  0  0  0  0
  -29.2890   27.3896  -38.9168 C   0  0  0  0  0  0
  -29.9121   26.3087  -38.1855 C   0  0  0  0  0  0
  -29.9691   26.4688  -36.8525 N   0  0  0  0  0  0
  -30.4438   25.3713  -38.7810 O   0  0  0  0  0  0
  -30.6130   25.4828  -36.0913 O   0  0  0  0  0  0
  -28.5910   32.2172  -47.7502 H   0  0  0  0  0  0
  -28.2673   34.6322  -48.1869 H   0  0  0  0  0  0
  -26.5172   35.9081  -47.0472 H   0  0  0  0  0  0
  -25.0117   34.8252  -45.4140 H   0  0  0  0  0  0
  -27.5113   30.1104  -46.1008 H   0  0  0  0  0  0
  -25.8455   29.4430  -43.1792 H   0  0  0  0  0  0
  -26.2980   28.6037  -44.6449 H   0  0  0  0  0  0
  -24.6296   29.0634  -44.3840 H   0  0  0  0  0  0
  -23.6989   33.2655  -44.0378 H   0  0  0  0  0  0
  -23.2661   31.5969  -44.0487 H   0  0  0  0  0  0
  -23.5608   32.4455  -41.7436 H   0  0  0  0  0  0
  -24.6752   31.1233  -42.0960 H   0  0  0  0  0  0
  -25.4037   33.9577  -42.2784 H   0  0  0  0  0  0
  -26.6018   33.7382  -40.3225 H   0  0  0  0  0  0
  -24.9778   33.2057  -39.9880 H   0  0  0  0  0  0
  -24.8146   31.1844  -38.7945 H   0  0  0  0  0  0
  -25.7785   29.0949  -37.9815 H   0  0  0  0  0  0
  -29.2213   29.6984  -40.4936 H   0  0  0  0  0  0
  -28.2125   31.7643  -41.3439 H   0  0  0  0  0  0
  -27.6897   27.7243  -37.5988 H   0  0  0  0  0  0
  -29.7767   27.6552  -39.8411 H   0  0  0  0  0  0
  -29.5218   27.1866  -36.2902 H   0  0  0  0  0  0
  -29.8922   25.0241  -35.6490 H   0  0  0  0  0  0
  1  2  2  0  0  0
  1  5  1  0  0  0
  1 27  1  0  0  0
  2  3  1  0  0  0
  2 28  1  0  0  0
  3  4  2  0  0  0
  3 29  1  0  0  0
  4  6  1  0  0  0
  4 30  1  0  0  0
  5  9  1  0  0  0
  5  6  2  0  0  0
  6  7  1  0  0  0
  7  8  2  0  0  0
  7 11  1  0  0  0
  8  9  1  0  0  0
  8 10  1  0  0  0
  9 31  1  0  0  0
 10 32  1  0  0  0
 10 33  1  0  0  0
 10 34  1  0  0  0
 11 12  1  0  0  0
 11 35  1  0  0  0
 11 36  1  0  0  0
 12 13  1  0  0  0
 12 37  1  0  0  0
 12 38  1  0  0  0
 13 14  1  0  0  0
 13 39  1  0  0  0
 14 15  1  0  0  0
 14 40  1  0  0  0
 14 41  1  0  0  0
 15 16  2  0  0  0
 15 20  1  0  0  0
 16 17  1  0  0  0
 16 42  1  0  0  0
 17 18  2  0  0  0
 17 43  1  0  0  0
 18 19  1  0  0  0
 18 21  1  0  0  0
 19 20  2  0  0  0
 19 44  1  0  0  0
 20 45  1  0  0  0
 21 22  2  0  0  0
 21 46  1  0  0  0
 22 23  1  0  0  0
 22 47  1  0  0  0
 23 24  1  0  0  0
 23 25  2  0  0  0
 24 26  1  0  0  0
 24 48  1  0  0  0
 26 49  1  0  0  0
M  END
> <s_m_entry_id>
53031

> <s_m_entry_name>
dock_pv.250

> <s_m_Source_Path>
/home/csk/Desktop/cluster/DUD-E-result/hdac8

> <s_m_Source_File>
dock_pv.maegz

> <i_m_Source_File_Index>
250

> <chembl_id>
CHEMBL483254

> <chembl_pref_name>
PANOBINOSTAT

> <i_lp_mmshare_version>
53161

> <i_f3d_flags>
0

> <r_lp_tautomer_probability>
1

> <s_lp_Force_Field>
OPLS_2005

> <r_lp_Energy>
21.513609

> <b_lp_Chiralities_Consistent>
1

> <s_lp_Variant>
CHEMBL3192_lig508-1

> <s_i_glide_gridfile>
glide-grid_3f07

> <i_i_glide_lignum>
529

> <i_i_glide_rotatable_bonds>
9

> <r_i_docking_score>
-7.39770529478178

> <r_i_glide_ligand_efficiency>
-0.284527126722376

> <r_i_glide_ligand_efficiency_sa>
-0.842910493354857

> <r_i_glide_ligand_efficiency_ln>
-1.73732681462857

> <r_i_glide_gscore>
-7.39770529478178

> <r_i_glide_lipo>
-1.63811258723236

> <r_i_glide_hbond>
-0.32

> <r_i_glide_metal>
-2.3

> <r_i_glide_rewards>
-1.27079019556527

> <r_i_glide_evdw>
-34.0839424133301

> <r_i_glide_ecoul>
-8.60633087158203

> <r_i_glide_erotb>
1.24807928538972

> <r_i_glide_esite>
-0.121735045970059

> <r_i_glide_emodel>
-64.2412480924937

> <r_i_glide_energy>
-42.6902732849121

> <r_i_glide_einternal>
6.37163591384888

> <i_i_glide_confnum>
88

> <i_i_glide_posenum>
44

> <r_i_glide_eff_state_penalty>
0

> <s_user_duplicate_titles>
CHEMBL3192_lig508,499179

> <s_m_subgroup_title>
dock_pv

> <s_m_subgroupid>
dock_pv

> <b_m_subgroup_collapsed>
1

$$$$
CHEMBL3192_lig1034
                    3D
 Schrodinger Suite 2021-1.
 47 49  0  0  1  0            999 V2000
  -23.7282   31.2689  -47.1562 C   0  0  0  0  0  0
  -23.7664   31.1052  -45.6345 C   0  0  0  0  0  0
  -22.6128   31.7439  -45.0927 O   0  0  0  0  0  0
  -22.5013   31.9034  -43.7252 C   0  0  0  0  0  0
  -21.5032   32.7442  -43.2316 C   0  0  0  0  0  0
  -21.4660   32.9436  -41.8499 C   0  0  0  0  0  0
  -20.4404   33.8491  -41.1996 C   0  0  0  0  0  0
  -22.3469   32.3492  -41.0071 N   0  0  0  0  0  0
  -23.2700   31.5278  -41.5725 C   0  0  0  0  0  0
  -24.1996   30.8690  -40.7619 N   0  0  0  0  0  0
  -24.7452   31.5397  -39.5810 C   0  0  1  0  0  0
  -25.7325   32.6324  -40.0408 C   0  0  0  0  0  0
  -26.8449   32.0553  -40.9187 C   0  0  0  0  0  0
  -27.4616   30.8053  -40.2940 C   0  0  0  0  0  0
  -28.6833   30.3753  -40.7810 C   0  0  0  0  0  0
  -29.2799   29.2277  -40.3171 C   0  0  0  0  0  0
  -28.6801   28.4417  -39.3327 C   0  0  0  0  0  0
  -27.4418   28.8654  -38.8216 C   0  0  0  0  0  0
  -26.8190   30.0409  -39.2879 C   0  0  0  0  0  0
  -25.4865   30.5145  -38.6896 C   0  0  0  0  0  0
  -29.4130   27.2016  -38.8568 C   0  0  0  0  0  0
  -30.2130   26.6094  -39.5810 O   0  0  0  0  0  0
  -29.3071   26.8690  -37.5810 N   0  0  0  0  0  0
  -30.2088   25.9229  -37.0452 O   0  0  0  0  0  0
  -23.3837   31.2700  -42.8995 N   0  0  0  0  0  0
  -24.6302   30.8690  -47.6182 H   0  0  0  0  0  0
  -23.6571   32.3214  -47.4322 H   0  0  0  0  0  0
  -22.8675   30.7537  -47.5837 H   0  0  0  0  0  0
  -23.7869   30.0488  -45.3632 H   0  0  0  0  0  0
  -24.6768   31.5666  -45.2464 H   0  0  0  0  0  0
  -20.8092   33.2327  -43.8986 H   0  0  0  0  0  0
  -19.8247   34.3576  -41.9417 H   0  0  0  0  0  0
  -20.9356   34.6075  -40.5920 H   0  0  0  0  0  0
  -19.7839   33.2690  -40.5506 H   0  0  0  0  0  0
  -24.8758   30.3294  -41.2787 H   0  0  0  0  0  0
  -23.9284   31.9995  -39.0202 H   0  0  0  0  0  0
  -25.2087   33.4401  -40.5545 H   0  0  0  0  0  0
  -26.2131   33.0876  -39.1810 H   0  0  0  0  0  0
  -26.4464   31.7996  -41.9017 H   0  0  0  0  0  0
  -27.6065   32.8161  -41.0939 H   0  0  0  0  0  0
  -29.1654   30.9037  -41.5810 H   0  0  0  0  0  0
  -30.2130   28.9382  -40.7675 H   0  0  0  0  0  0
  -26.9524   28.2865  -38.0511 H   0  0  0  0  0  0
  -25.7084   30.9964  -37.7366 H   0  0  0  0  0  0
  -24.8373   29.6689  -38.4574 H   0  0  0  0  0  0
  -28.7303   27.3134  -36.8682 H   0  0  0  0  0  0
  -30.7751   26.4432  -36.4670 H   0  0  0  0  0  0
  1  2  1  0  0  0
  1 26  1  0  0  0
  1 27  1  0  0  0
  1 28  1  0  0  0
  2  3  1  0  0  0
  2 29  1  0  0  0
  2 30  1  0  0  0
  3  4  1  0  0  0
  4  5  2  0  0  0
  4 25  1  0  0  0
  5  6  1  0  0  0
  5 31  1  0  0  0
  6  7  1  0  0  0
  6  8  2  0  0  0
  7 32  1  0  0  0
  7 33  1  0  0  0
  7 34  1  0  0  0
  8  9  1  0  0  0
  9 10  1  0  0  0
  9 25  2  0  0  0
 10 11  1  0  0  0
 10 35  1  0  0  0
 11 12  1  0  0  0
 11 20  1  0  0  0
 11 36  1  0  0  0
 12 13  1  0  0  0
 12 37  1  0  0  0
 12 38  1  0  0  0
 13 14  1  0  0  0
 13 39  1  0  0  0
 13 40  1  0  0  0
 14 15  2  0  0  0
 14 19  1  0  0  0
 15 16  1  0  0  0
 15 41  1  0  0  0
 16 17  2  0  0  0
 16 42  1  0  0  0
 17 18  1  0  0  0
 17 21  1  0  0  0
 18 19  2  0  0  0
 18 43  1  0  0  0
 19 20  1  0  0  0
 20 44  1  0  0  0
 20 45  1  0  0  0
 21 22  2  0  0  0
 21 23  1  0  0  0
 23 24  1  0  0  0
 23 46  1  0  0  0
 24 47  1  0  0  0
M  END
> <s_m_entry_id>
53032

> <s_m_entry_name>
dock_pv.251

> <s_m_Source_Path>
/home/csk/Desktop/cluster/DUD-E-result/hdac8

> <s_m_Source_File>
dock_pv.maegz

> <i_m_Source_File_Index>
251

> <chembl_id>
CHEMBL3694287

> <chembl_pref_name>
None

> <i_lp_mmshare_version>
53161

> <i_f3d_flags>
0

> <r_lp_tautomer_probability>
0.999999917912647

> <s_lp_Force_Field>
OPLS_2005

> <r_lp_Energy>
14.835005

> <b_lp_Chiralities_Consistent>
1

> <s_lp_Variant>
CHEMBL3192_lig1034-2

> <s_i_glide_gridfile>
glide-grid_3f07

> <i_i_glide_lignum>
1108

> <i_i_glide_rotatable_bonds>
7

> <r_i_docking_score>
-7.39708575434961

> <r_i_glide_ligand_efficiency>
-0.295883430173984

> <r_i_glide_ligand_efficiency_sa>
-0.865168397343708

> <r_i_glide_ligand_efficiency_ln>
-1.75333099655302

> <r_i_glide_gscore>
-7.39708575434961

> <r_i_glide_lipo>
-1.07853347576011

> <r_i_glide_hbond>
-0.608

> <r_i_glide_metal>
-2.3

> <r_i_glide_rewards>
-1.2754265965812

> <r_i_glide_evdw>
-18.6703853607178

> <r_i_glide_ecoul>
-11.9810590744019

> <r_i_glide_erotb>
0.808731920648313

> <r_i_glide_esite>
-0.21317947346045

> <r_i_glide_emodel>
-42.2264640549233

> <r_i_glide_energy>
-30.6514444351196

> <r_i_glide_einternal>
4.24176597595215

> <i_i_glide_confnum>
19

> <i_i_glide_posenum>
169

> <r_i_glide_eff_state_penalty>
0

> <s_user_duplicate_titles>
CHEMBL3192_lig1034

> <s_m_subgroup_title>
dock_pv

> <s_m_subgroupid>
dock_pv

> <b_m_subgroup_collapsed>
1

$$$$
CHEMBL3192_lig624
                    3D
 Schrodinger Suite 2021-1.
 48 49  0  0  1  0            999 V2000
  -29.8269   26.4755  -38.4204 C   0  0  0  0  0  0
  -28.7455   27.5622  -38.2554 C   0  0  0  0  0  0
  -28.0662   27.9748  -39.5809 C   0  0  0  0  0  0
  -26.8135   28.8554  -39.4343 C   0  0  0  0  0  0
  -27.0512   30.3516  -39.2035 C   0  0  0  0  0  0
  -25.7299   31.1003  -38.8879 C   0  0  0  0  0  0
  -25.2586   32.1433  -39.9219 C   0  0  0  0  0  0
  -30.5038   26.4690  -39.4569 O   0  0  0  0  0  0
  -30.0443   25.6427  -37.3907 N   0  0  0  0  0  0
  -31.0131   24.6354  -37.5337 O   0  0  0  0  0  0
  -25.0196   31.6263  -41.2742 N   0  0  0  0  0  0
  -25.8597   31.7935  -42.3124 C   0  0  0  0  0  0
  -23.9357   31.3043  -47.7374 N   0  0  0  0  0  0
  -24.7742   31.2690  -48.8289 C   0  0  0  0  0  0
  -24.4182   31.1654  -50.0039 O   0  0  0  0  0  0
  -26.1895   31.3031  -48.4964 C   0  0  0  0  0  0
  -26.6648   31.3324  -47.2351 C   0  0  0  0  0  0
  -25.7432   31.3604  -46.0925 C   0  0  0  0  0  0
  -26.2131   31.4611  -44.7843 C   0  0  0  0  0  0
  -25.3216   31.5326  -43.7044 C   0  0  0  0  0  0
  -23.9445   31.4477  -43.9708 C   0  0  0  0  0  0
  -23.4720   31.3455  -45.2811 C   0  0  0  0  0  0
  -24.3632   31.3286  -46.3671 C   0  0  0  0  0  0
  -22.4831   31.3042  -47.9989 C   0  0  0  0  0  0
  -27.0130   32.1966  -42.1625 O   0  0  0  0  0  0
  -29.2001   28.4313  -37.7783 H   0  0  0  0  0  0
  -27.9731   27.2070  -37.5810 H   0  0  0  0  0  0
  -27.7327   27.0591  -40.0683 H   0  0  0  0  0  0
  -28.7757   28.4622  -40.2525 H   0  0  0  0  0  0
  -26.2130   28.4690  -38.6139 H   0  0  0  0  0  0
  -26.2130   28.7613  -40.3386 H   0  0  0  0  0  0
  -27.5581   30.7864  -40.0642 H   0  0  0  0  0  0
  -27.7497   30.4691  -38.3810 H   0  0  0  0  0  0
  -25.8499   31.6207  -37.9368 H   0  0  0  0  0  0
  -24.9137   30.3982  -38.7079 H   0  0  0  0  0  0
  -25.9887   32.9558  -39.9568 H   0  0  0  0  0  0
  -24.3278   32.5992  -39.5809 H   0  0  0  0  0  0
  -29.5544   25.6066  -36.5062 H   0  0  0  0  0  0
  -30.4915   23.8216  -37.5811 H   0  0  0  0  0  0
  -24.1166   31.2115  -41.4389 H   0  0  0  0  0  0
  -26.8880   31.2923  -49.3210 H   0  0  0  0  0  0
  -27.7344   31.3467  -47.0711 H   0  0  0  0  0  0
  -27.2795   31.5253  -44.6138 H   0  0  0  0  0  0
  -23.2168   31.5117  -43.1746 H   0  0  0  0  0  0
  -22.4026   31.3157  -45.4312 H   0  0  0  0  0  0
  -22.2193   31.2333  -49.0557 H   0  0  0  0  0  0
  -22.0377   32.2247  -47.6196 H   0  0  0  0  0  0
  -21.9993   30.4688  -47.4944 H   0  0  0  0  0  0
  1  2  1  0  0  0
  1  8  2  0  0  0
  1  9  1  0  0  0
  2  3  1  0  0  0
  2 26  1  0  0  0
  2 27  1  0  0  0
  3  4  1  0  0  0
  3 28  1  0  0  0
  3 29  1  0  0  0
  4  5  1  0  0  0
  4 30  1  0  0  0
  4 31  1  0  0  0
  5  6  1  0  0  0
  5 32  1  0  0  0
  5 33  1  0  0  0
  6  7  1  0  0  0
  6 34  1  0  0  0
  6 35  1  0  0  0
  7 11  1  0  0  0
  7 36  1  0  0  0
  7 37  1  0  0  0
  9 10  1  0  0  0
  9 38  1  0  0  0
 10 39  1  0  0  0
 11 12  1  0  0  0
 11 40  1  0  0  0
 12 20  1  0  0  0
 12 25  2  0  0  0
 13 14  1  0  0  0
 13 23  1  0  0  0
 13 24  1  0  0  0
 14 15  2  0  0  0
 14 16  1  0  0  0
 16 17  2  0  0  0
 16 41  1  0  0  0
 17 18  1  0  0  0
 17 42  1  0  0  0
 18 19  1  0  0  0
 18 23  2  0  0  0
 19 20  2  0  0  0
 19 43  1  0  0  0
 20 21  1  0  0  0
 21 22  2  0  0  0
 21 44  1  0  0  0
 22 23  1  0  0  0
 22 45  1  0  0  0
 24 46  1  0  0  0
 24 47  1  0  0  0
 24 48  1  0  0  0
M  END
> <s_m_entry_id>
53033

> <s_m_entry_name>
dock_pv.252

> <s_m_Source_Path>
/home/csk/Desktop/cluster/DUD-E-result/hdac8

> <s_m_Source_File>
dock_pv.maegz

> <i_m_Source_File_Index>
252

> <chembl_id>
CHEMBL3309284

> <chembl_pref_name>
None

> <i_lp_mmshare_version>
53161

> <i_f3d_flags>
0

> <r_lp_tautomer_probability>
1

> <s_lp_Force_Field>
OPLS_2005

> <r_lp_Energy>
29.729532

> <b_lp_Chiralities_Consistent>
1

> <s_lp_Variant>
CHEMBL3192_lig624-1

> <s_i_glide_gridfile>
glide-grid_3f07

> <i_i_glide_lignum>
650

> <i_i_glide_rotatable_bonds>
11

> <r_i_docking_score>
-7.39424102497995

> <r_i_glide_ligand_efficiency>
-0.295769640999198

> <r_i_glide_ligand_efficiency_sa>
-0.864835675778573

> <r_i_glide_ligand_efficiency_ln>
-1.75265671044275

> <r_i_glide_gscore>
-7.39424102497995

> <r_i_glide_lipo>
-0.987982234576458

> <r_i_glide_hbond>
-0.304

> <r_i_glide_metal>
-2.3

> <r_i_glide_rewards>
-1.08288874540027

> <r_i_glide_evdw>
-30.0252170562744

> <r_i_glide_ecoul>
-17.94775390625

> <r_i_glide_erotb>
1.59260965482209

> <r_i_glide_esite>
-0.118555761074095

> <r_i_glide_emodel>
-70.7616906889886

> <r_i_glide_energy>
-47.9729709625244

> <r_i_glide_einternal>
8.65662479400635

> <i_i_glide_confnum>
127

> <i_i_glide_posenum>
396

> <r_i_glide_eff_state_penalty>
0

> <s_user_duplicate_titles>
CHEMBL3192_lig624

> <s_m_subgroup_title>
dock_pv

> <s_m_subgroupid>
dock_pv

> <b_m_subgroup_collapsed>
1

$$$$
CHEMBL3192_lig1069
                    3D
 Schrodinger Suite 2021-1.
 42 44  0  0  1  0            999 V2000
  -30.2619   25.6669  -37.2913 O   0  0  0  0  0  0
  -29.4195   26.7605  -37.5810 N   0  0  0  0  0  0
  -29.3926   27.2391  -38.8252 C   0  0  0  0  0  0
  -30.2225   26.8687  -39.6509 O   0  0  0  0  0  0
  -28.3524   28.3032  -39.1261 C   0  0  0  0  0  0
  -27.1837   28.3430  -38.3810 C   0  0  0  0  0  0
  -26.2119   29.3026  -38.5900 C   0  0  0  0  0  0
  -26.3277   30.2449  -39.5946 C   0  0  0  0  0  0
  -25.1479   31.1891  -39.8547 C   0  0  0  0  0  0
  -25.5100   32.3619  -40.7804 C   0  0  0  0  0  0
  -26.3566   31.8990  -41.9761 C   0  0  2  0  0  0
  -27.6743   31.2891  -41.4669 C   0  0  0  0  0  0
  -27.4981   30.2344  -40.3829 C   0  0  0  0  0  0
  -28.4981   29.2688  -40.1354 C   0  0  0  0  0  0
  -25.6065   30.8654  -42.7324 N   0  0  2  0  0  0
  -24.6173   31.3276  -44.1060 S   0  0  0  0  0  0
  -23.6935   32.3813  -43.6770 O   0  0  0  0  0  0
  -24.1143   30.0821  -44.6986 O   0  0  0  0  0  0
  -25.7846   32.0441  -45.2683 C   0  0  0  0  0  0
  -26.3873   31.2123  -46.2145 C   0  0  0  0  0  0
  -27.3374   31.7194  -47.0997 C   0  0  0  0  0  0
  -27.6880   33.0661  -47.0468 C   0  0  0  0  0  0
  -28.6128   33.5578  -47.9004 F   0  0  0  0  0  0
  -27.0840   33.9054  -46.1132 C   0  0  0  0  0  0
  -26.1335   33.4016  -45.2247 C   0  0  0  0  0  0
  -25.5782   34.2425  -44.3233 F   0  0  0  0  0  0
  -29.6538   24.9270  -37.1809 H   0  0  0  0  0  0
  -28.8246   27.0316  -36.8016 H   0  0  0  0  0  0
  -27.0122   27.6182  -37.5986 H   0  0  0  0  0  0
  -25.3117   29.2777  -37.9914 H   0  0  0  0  0  0
  -24.7500   31.5750  -38.9143 H   0  0  0  0  0  0
  -24.3415   30.6093  -40.3072 H   0  0  0  0  0  0
  -26.0642   33.1046  -40.2037 H   0  0  0  0  0  0
  -24.5958   32.8531  -41.1175 H   0  0  0  0  0  0
  -26.5002   32.7925  -42.5822 H   0  0  0  0  0  0
  -28.2107   30.8654  -42.3087 H   0  0  0  0  0  0
  -28.2949   32.0879  -41.0616 H   0  0  0  0  0  0
  -29.3944   29.2769  -40.7396 H   0  0  0  0  0  0
  -26.1096   29.9862  -42.8610 H   0  0  0  0  0  0
  -26.1243   30.1663  -46.2543 H   0  0  0  0  0  0
  -27.8086   31.0724  -47.8250 H   0  0  0  0  0  0
  -27.3557   34.9496  -46.0768 H   0  0  0  0  0  0
  1  2  1  0  0  0
  1 27  1  0  0  0
  2  3  1  0  0  0
  2 28  1  0  0  0
  3  4  2  0  0  0
  3  5  1  0  0  0
  5  6  2  0  0  0
  5 14  1  0  0  0
  6  7  1  0  0  0
  6 29  1  0  0  0
  7  8  2  0  0  0
  7 30  1  0  0  0
  8  9  1  0  0  0
  8 13  1  0  0  0
  9 10  1  0  0  0
  9 31  1  0  0  0
  9 32  1  0  0  0
 10 11  1  0  0  0
 10 33  1  0  0  0
 10 34  1  0  0  0
 11 12  1  0  0  0
 11 15  1  0  0  0
 11 35  1  0  0  0
 12 13  1  0  0  0
 12 36  1  0  0  0
 12 37  1  0  0  0
 13 14  2  0  0  0
 14 38  1  0  0  0
 15 16  1  0  0  0
 15 39  1  0  0  0
 16 17  2  0  0  0
 16 18  2  0  0  0
 16 19  1  0  0  0
 19 20  2  0  0  0
 19 25  1  0  0  0
 20 21  1  0  0  0
 20 40  1  0  0  0
 21 22  2  0  0  0
 21 41  1  0  0  0
 22 23  1  0  0  0
 22 24  1  0  0  0
 24 25  2  0  0  0
 24 42  1  0  0  0
 25 26  1  0  0  0
M  END
> <s_m_entry_id>
53034

> <s_m_entry_name>
dock_pv.253

> <s_m_Source_Path>
/home/csk/Desktop/cluster/DUD-E-result/hdac8

> <s_m_Source_File>
dock_pv.maegz

> <i_m_Source_File_Index>
253

> <chembl_id>
CHEMBL3694314

> <chembl_pref_name>
None

> <i_lp_mmshare_version>
53161

> <i_f3d_flags>
0

> <r_lp_tautomer_probability>
1

> <s_lp_Force_Field>
OPLS_2005

> <r_lp_Energy>
23.367783

> <b_lp_Chiralities_Consistent>
1

> <s_lp_Variant>
CHEMBL3192_lig1069-1

> <s_i_glide_gridfile>
glide-grid_3f07

> <i_i_glide_lignum>
1177

> <i_i_glide_rotatable_bonds>
6

> <r_i_docking_score>
-7.39069632916142

> <r_i_glide_ligand_efficiency>
-0.284257551121593

> <r_i_glide_ligand_efficiency_sa>
-0.842111876698266

> <r_i_glide_ligand_efficiency_ln>
-1.73568078205092

> <r_i_glide_gscore>
-7.39069632916142

> <r_i_glide_lipo>
-1.38322289254393

> <r_i_glide_hbond>
-0.608

> <r_i_glide_metal>
-1.86757035615371

> <r_i_glide_rewards>
-0.928174598668051

> <r_i_glide_evdw>
-21.9848518371582

> <r_i_glide_ecoul>
-13.1240339279175

> <r_i_glide_erotb>
0.664119199249801

> <r_i_glide_esite>
-0.2

> <r_i_glide_emodel>
-54.8119427924135

> <r_i_glide_energy>
-35.1088857650757

> <r_i_glide_einternal>
0.706313014030457

> <i_i_glide_confnum>
208

> <i_i_glide_posenum>
152

> <r_i_glide_eff_state_penalty>
0

> <s_user_duplicate_titles>
CHEMBL3192_lig1069

> <s_m_subgroup_title>
dock_pv

> <s_m_subgroupid>
dock_pv

> <b_m_subgroup_collapsed>
1

$$$$
CHEMBL3192_lig683
                    3D
 Schrodinger Suite 2021-1.
 40 42  0  0  1  0            999 V2000
  -27.3666   28.7760  -38.4115 C   0  0  0  0  0  0
  -28.4951   28.4733  -39.1793 C   0  0  0  0  0  0
  -28.8123   29.3206  -40.2518 C   0  0  0  0  0  0
  -26.6160   29.9221  -38.6669 C   0  0  0  0  0  0
  -26.9436   30.7610  -39.7293 C   0  0  0  0  0  0
  -28.0292   30.4350  -40.5474 C   0  0  0  0  0  0
  -29.3919   27.2946  -38.8449 C   0  0  0  0  0  0
  -29.4114   26.8641  -37.5801 N   0  0  0  0  0  0
  -30.2105   26.8700  -39.6644 O   0  0  0  0  0  0
  -30.3766   25.9185  -37.1984 O   0  0  0  0  0  0
  -26.1799   31.9309  -39.9027 N   0  0  0  0  0  0
  -25.5549   32.2940  -41.1874 C   0  0  1  0  0  0
  -24.8226   31.1609  -41.8621 C   0  0  0  0  0  0
  -24.9258   31.5204  -43.3260 C   0  0  0  0  0  0
  -26.1207   32.3767  -43.4662 N   0  0  0  0  0  0
  -26.5335   32.8449  -42.2417 C   0  0  0  0  0  0
  -27.4656   33.6056  -41.9733 O   0  0  0  0  0  0
  -26.6637   32.7191  -44.7479 C   0  0  0  0  0  0
  -26.0258   32.2408  -45.9061 C   0  0  0  0  0  0
  -26.5427   32.4954  -47.1738 C   0  0  0  0  0  0
  -27.7168   33.2261  -47.3066 C   0  0  0  0  0  0
  -28.3582   33.7287  -46.1824 C   0  0  0  0  0  0
  -27.8266   33.4945  -44.9163 C   0  0  0  0  0  0
  -28.3793   33.5119  -48.8748 Cl  0  0  0  0  0  0
  -27.0686   28.1364  -37.5975 H   0  0  0  0  0  0
  -29.6865   29.1446  -40.8600 H   0  0  0  0  0  0
  -25.7696   30.1513  -38.0360 H   0  0  0  0  0  0
  -28.3034   31.0477  -41.3951 H   0  0  0  0  0  0
  -28.8464   27.2033  -36.8037 H   0  0  0  0  0  0
  -30.9572   26.4087  -36.6105 H   0  0  0  0  0  0
  -25.5726   32.1424  -39.1175 H   0  0  0  0  0  0
  -24.8533   33.1084  -40.9962 H   0  0  0  0  0  0
  -23.7835   31.0782  -41.5372 H   0  0  0  0  0  0
  -25.2966   30.1919  -41.6845 H   0  0  0  0  0  0
  -25.0201   30.6098  -43.9239 H   0  0  0  0  0  0
  -24.0387   32.0626  -43.6651 H   0  0  0  0  0  0
  -25.1180   31.6572  -45.8531 H   0  0  0  0  0  0
  -26.0380   32.1211  -48.0495 H   0  0  0  0  0  0
  -29.2689   34.2998  -46.2897 H   0  0  0  0  0  0
  -28.3722   33.9042  -44.0840 H   0  0  0  0  0  0
  1  2  2  0  0  0
  1  4  1  0  0  0
  1 25  1  0  0  0
  2  3  1  0  0  0
  2  7  1  0  0  0
  3  6  2  0  0  0
  3 26  1  0  0  0
  4  5  2  0  0  0
  4 27  1  0  0  0
  5  6  1  0  0  0
  5 11  1  0  0  0
  6 28  1  0  0  0
  7  8  1  0  0  0
  7  9  2  0  0  0
  8 10  1  0  0  0
  8 29  1  0  0  0
 10 30  1  0  0  0
 11 12  1  0  0  0
 11 31  1  0  0  0
 12 13  1  0  0  0
 12 16  1  0  0  0
 12 32  1  0  0  0
 13 14  1  0  0  0
 13 33  1  0  0  0
 13 34  1  0  0  0
 14 15  1  0  0  0
 14 35  1  0  0  0
 14 36  1  0  0  0
 15 16  1  0  0  0
 15 18  1  0  0  0
 16 17  2  0  0  0
 18 19  2  0  0  0
 18 23  1  0  0  0
 19 20  1  0  0  0
 19 37  1  0  0  0
 20 21  2  0  0  0
 20 38  1  0  0  0
 21 22  1  0  0  0
 21 24  1  0  0  0
 22 23  2  0  0  0
 22 39  1  0  0  0
 23 40  1  0  0  0
M  END
> <s_m_entry_id>
53035

> <s_m_entry_name>
dock_pv.254

> <s_m_Source_Path>
/home/csk/Desktop/cluster/DUD-E-result/hdac8

> <s_m_Source_File>
dock_pv.maegz

> <i_m_Source_File_Index>
254

> <chembl_id>
CHEMBL3415453

> <chembl_pref_name>
None

> <i_lp_mmshare_version>
53161

> <i_f3d_flags>
0

> <r_lp_tautomer_probability>
1

> <s_lp_Force_Field>
OPLS_2005

> <r_lp_Energy>
42.868604

> <b_lp_Chiralities_Consistent>
1

> <s_lp_Variant>
CHEMBL3192_lig683-2

> <s_i_glide_gridfile>
glide-grid_3f07

> <i_i_glide_lignum>
717

> <i_i_glide_rotatable_bonds>
6

> <r_i_docking_score>
-7.38591882280126

> <r_i_glide_ligand_efficiency>
-0.307746617616719

> <r_i_glide_ligand_efficiency_sa>
-0.887694853102162

> <r_i_glide_ligand_efficiency_ln>
-1.76778929202695

> <r_i_glide_gscore>
-7.38591882280126

> <r_i_glide_lipo>
-1.50874305652208

> <r_i_glide_hbond>
-0.608

> <r_i_glide_metal>
-1.88937483807876

> <r_i_glide_rewards>
-0.759391865119519

> <r_i_glide_evdw>
-23.7102832794189

> <r_i_glide_ecoul>
-13.093391418457

> <r_i_glide_erotb>
0.794722982789739

> <r_i_glide_esite>
-0.265609169131135

> <r_i_glide_emodel>
-46.5535514254541

> <r_i_glide_energy>
-36.803674697876

> <r_i_glide_einternal>
14.2560949325562

> <i_i_glide_confnum>
7

> <i_i_glide_posenum>
227

> <r_i_glide_eff_state_penalty>
0

> <s_user_duplicate_titles>
CHEMBL3192_lig683

> <s_m_subgroup_title>
dock_pv

> <s_m_subgroupid>
dock_pv

> <b_m_subgroup_collapsed>
1

$$$$
CHEMBL3192_lig447
                    3D
 Schrodinger Suite 2021-1.
 36 37  0  0  1  0            999 V2000
  -31.1893   24.4700  -37.0139 O   0  0  0  0  0  0
  -30.2130   25.4734  -37.1394 N   0  0  0  0  0  0
  -30.1820   26.1934  -38.2726 C   0  0  0  0  0  0
  -31.0129   26.0690  -39.1810 O   0  0  0  0  0  0
  -29.1081   27.1644  -38.3620 C   0  0  0  0  0  0
  -29.0423   28.0522  -39.3807 C   0  0  0  0  0  0
  -28.0645   29.1290  -39.6214 C   0  0  0  0  0  0
  -28.2265   29.8878  -40.7810 C   0  0  0  0  0  0
  -27.3750   30.9452  -41.0618 C   0  0  0  0  0  0
  -26.3609   31.2896  -40.1669 C   0  0  0  0  0  0
  -25.5152   32.3893  -40.3810 N   0  0  0  0  0  0
  -25.7226   33.6073  -41.6549 S   0  0  0  0  0  0
  -27.1600   33.8615  -41.8215 O   0  0  0  0  0  0
  -24.7948   34.6952  -41.3322 O   0  0  0  0  0  0
  -25.0960   32.8220  -43.1378 C   0  0  0  0  0  0
  -23.7205   32.6195  -43.2767 C   0  0  0  0  0  0
  -23.2171   32.0069  -44.4242 C   0  0  0  0  0  0
  -24.0827   31.5924  -45.4380 C   0  0  0  0  0  0
  -23.4130   30.8690  -46.8583 Cl  0  0  0  0  0  0
  -25.4651   31.7796  -45.2948 C   0  0  0  0  0  0
  -26.5768   31.2656  -46.5166 Cl  0  0  0  0  0  0
  -25.9659   32.3966  -44.1465 C   0  0  0  0  0  0
  -26.1759   30.5182  -39.0165 C   0  0  0  0  0  0
  -27.0165   29.4362  -38.7495 C   0  0  0  0  0  0
  -30.7026   23.6534  -37.1810 H   0  0  0  0  0  0
  -29.5677   25.5059  -36.3615 H   0  0  0  0  0  0
  -28.3665   27.1635  -37.5810 H   0  0  0  0  0  0
  -29.8130   28.0118  -40.1352 H   0  0  0  0  0  0
  -29.0187   29.6690  -41.4826 H   0  0  0  0  0  0
  -27.5336   31.4892  -41.9766 H   0  0  0  0  0  0
  -24.7851   32.5752  -39.7064 H   0  0  0  0  0  0
  -23.0417   32.9424  -42.4991 H   0  0  0  0  0  0
  -22.1511   31.8614  -44.5311 H   0  0  0  0  0  0
  -27.0313   32.5485  -44.0487 H   0  0  0  0  0  0
  -25.3873   30.7639  -38.3192 H   0  0  0  0  0  0
  -26.8661   28.8594  -37.8508 H   0  0  0  0  0  0
  1  2  1  0  0  0
  1 25  1  0  0  0
  2  3  1  0  0  0
  2 26  1  0  0  0
  3  4  2  0  0  0
  3  5  1  0  0  0
  5  6  2  0  0  0
  5 27  1  0  0  0
  6  7  1  0  0  0
  6 28  1  0  0  0
  7  8  2  0  0  0
  7 24  1  0  0  0
  8  9  1  0  0  0
  8 29  1  0  0  0
  9 10  2  0  0  0
  9 30  1  0  0  0
 10 11  1  0  0  0
 10 23  1  0  0  0
 11 12  1  0  0  0
 11 31  1  0  0  0
 12 13  2  0  0  0
 12 14  2  0  0  0
 12 15  1  0  0  0
 15 16  2  0  0  0
 15 22  1  0  0  0
 16 17  1  0  0  0
 16 32  1  0  0  0
 17 18  2  0  0  0
 17 33  1  0  0  0
 18 19  1  0  0  0
 18 20  1  0  0  0
 20 21  1  0  0  0
 20 22  2  0  0  0
 22 34  1  0  0  0
 23 24  2  0  0  0
 23 35  1  0  0  0
 24 36  1  0  0  0
M  END
> <s_m_entry_id>
53036

> <s_m_entry_name>
dock_pv.255

> <s_m_Source_Path>
/home/csk/Desktop/cluster/DUD-E-result/hdac8

> <s_m_Source_File>
dock_pv.maegz

> <i_m_Source_File_Index>
255

> <chembl_id>
CHEMBL95850

> <chembl_pref_name>
None

> <i_lp_mmshare_version>
53161

> <i_f3d_flags>
0

> <r_lp_tautomer_probability>
1

> <s_lp_Force_Field>
OPLS_2005

> <r_lp_Energy>
15.811463

> <b_lp_Chiralities_Consistent>
1

> <s_lp_Variant>
CHEMBL3192_lig447-1

> <s_i_glide_gridfile>
glide-grid_3f07

> <i_i_glide_lignum>
466

> <i_i_glide_rotatable_bonds>
7

> <r_i_docking_score>
-7.38539960656175

> <r_i_glide_ligand_efficiency>
-0.30772498360674

> <r_i_glide_ligand_efficiency_sa>
-0.887632449819035

> <r_i_glide_ligand_efficiency_ln>
-1.76766501975555

> <r_i_glide_gscore>
-7.38539960656175

> <r_i_glide_lipo>
-1.16631948216431

> <r_i_glide_hbond>
-0.237519004941132

> <r_i_glide_metal>
-2.3

> <r_i_glide_rewards>
-0.813433618941808

> <r_i_glide_evdw>
-33.7892990112305

> <r_i_glide_ecoul>
-11.5974054336548

> <r_i_glide_erotb>
0.779108337967978

> <r_i_glide_esite>
-0.218160072872738

> <r_i_glide_emodel>
-69.6434508190643

> <r_i_glide_energy>
-45.3867044448853

> <r_i_glide_einternal>
0.408106625080109

> <i_i_glide_confnum>
64

> <i_i_glide_posenum>
240

> <r_i_glide_eff_state_penalty>
0

> <s_user_duplicate_titles>
CHEMBL3192_lig447

> <s_m_subgroup_title>
dock_pv

> <s_m_subgroupid>
dock_pv

> <b_m_subgroup_collapsed>
1

$$$$
CHEMBL3192_lig859
                    3D
 Schrodinger Suite 2021-1.
 46 47  0  0  1  0            999 V2000
  -26.8504   36.5878  -42.7443 C   0  0  0  0  0  0
  -27.2560   35.3826  -41.8773 C   0  0  0  0  0  0
  -27.8893   35.8618  -40.5550 C   0  0  0  0  0  0
  -26.0509   34.4350  -41.6383 C   0  0  0  0  0  0
  -26.3921   33.0886  -41.0036 C   0  0  0  0  0  0
  -27.5912   32.5532  -41.0276 N   0  0  0  0  0  0
  -27.4577   31.3566  -40.3828 C   0  0  0  0  0  0
  -28.4159   30.3571  -40.1712 C   0  0  0  0  0  0
  -28.0472   29.2139  -39.4519 C   0  0  0  0  0  0
  -29.0475   28.1483  -39.2828 C   0  0  0  0  0  0
  -29.0908   27.1853  -38.3330 C   0  0  0  0  0  0
  -30.1617   26.2114  -38.2598 C   0  0  0  0  0  0
  -30.9730   26.0690  -39.1810 O   0  0  0  0  0  0
  -30.2131   25.5060  -37.1187 N   0  0  0  0  0  0
  -31.1850   24.4974  -37.0006 O   0  0  0  0  0  0
  -26.7616   29.1088  -38.9168 C   0  0  0  0  0  0
  -25.7724   30.0685  -39.1430 C   0  0  0  0  0  0
  -26.1412   31.1818  -39.9021 C   0  0  0  0  0  0
  -25.4537   32.2791  -40.3809 N   0  0  0  0  0  0
  -24.0068   32.4821  -40.2801 C   0  0  0  0  0  0
  -23.2441   31.5683  -41.2686 C   0  0  0  0  0  0
  -23.6257   31.7521  -42.7510 C   0  0  0  0  0  0
  -22.8738   30.8908  -43.5810 O   0  0  0  0  0  0
  -26.0870   37.1937  -42.2536 H   0  0  0  0  0  0
  -26.4506   36.2669  -43.7074 H   0  0  0  0  0  0
  -27.7043   37.2350  -42.9482 H   0  0  0  0  0  0
  -28.0158   34.8347  -42.4374 H   0  0  0  0  0  0
  -27.1879   36.4662  -39.9795 H   0  0  0  0  0  0
  -28.7738   36.4732  -40.7387 H   0  0  0  0  0  0
  -28.1902   35.0290  -39.9207 H   0  0  0  0  0  0
  -25.3379   34.9734  -41.0126 H   0  0  0  0  0  0
  -25.5293   34.2637  -42.5803 H   0  0  0  0  0  0
  -29.4134   30.4710  -40.5684 H   0  0  0  0  0  0
  -29.8159   28.1727  -40.0363 H   0  0  0  0  0  0
  -28.3238   27.1314  -37.5811 H   0  0  0  0  0  0
  -29.5824   25.5529  -36.3294 H   0  0  0  0  0  0
  -30.6916   23.6836  -37.1596 H   0  0  0  0  0  0
  -26.5023   28.2304  -38.3478 H   0  0  0  0  0  0
  -24.7688   29.9390  -38.7634 H   0  0  0  0  0  0
  -23.7692   33.5302  -40.4569 H   0  0  0  0  0  0
  -23.7064   32.2663  -39.2532 H   0  0  0  0  0  0
  -22.1756   31.7493  -41.1465 H   0  0  0  0  0  0
  -23.4076   30.5285  -40.9815 H   0  0  0  0  0  0
  -24.6884   31.5573  -42.8998 H   0  0  0  0  0  0
  -23.4830   32.7900  -43.0549 H   0  0  0  0  0  0
  -21.9896   31.2550  -43.6843 H   0  0  0  0  0  0
  1  2  1  0  0  0
  1 24  1  0  0  0
  1 25  1  0  0  0
  1 26  1  0  0  0
  2  3  1  0  0  0
  2  4  1  0  0  0
  2 27  1  0  0  0
  3 28  1  0  0  0
  3 29  1  0  0  0
  3 30  1  0  0  0
  4  5  1  0  0  0
  4 31  1  0  0  0
  4 32  1  0  0  0
  5  6  2  0  0  0
  5 19  1  0  0  0
  6  7  1  0  0  0
  7  8  2  0  0  0
  7 18  1  0  0  0
  8  9  1  0  0  0
  8 33  1  0  0  0
  9 10  1  0  0  0
  9 16  2  0  0  0
 10 11  2  0  0  0
 10 34  1  0  0  0
 11 12  1  0  0  0
 11 35  1  0  0  0
 12 13  2  0  0  0
 12 14  1  0  0  0
 14 15  1  0  0  0
 14 36  1  0  0  0
 15 37  1  0  0  0
 16 17  1  0  0  0
 16 38  1  0  0  0
 17 18  2  0  0  0
 17 39  1  0  0  0
 18 19  1  0  0  0
 19 20  1  0  0  0
 20 21  1  0  0  0
 20 40  1  0  0  0
 20 41  1  0  0  0
 21 22  1  0  0  0
 21 42  1  0  0  0
 21 43  1  0  0  0
 22 23  1  0  0  0
 22 44  1  0  0  0
 22 45  1  0  0  0
 23 46  1  0  0  0
M  END
> <s_m_entry_id>
53037

> <s_m_entry_name>
dock_pv.256

> <s_m_Source_Path>
/home/csk/Desktop/cluster/DUD-E-result/hdac8

> <s_m_Source_File>
dock_pv.maegz

> <i_m_Source_File_Index>
256

> <chembl_id>
CHEMBL475145

> <chembl_pref_name>
None

> <i_lp_mmshare_version>
53161

> <i_f3d_flags>
0

> <r_lp_tautomer_probability>
1

> <s_lp_Force_Field>
OPLS_2005

> <r_lp_Energy>
19.504287

> <b_lp_Chiralities_Consistent>
1

> <s_lp_Variant>
CHEMBL3192_lig859-1

> <s_i_glide_gridfile>
glide-grid_3f07

> <i_i_glide_lignum>
917

> <i_i_glide_rotatable_bonds>
10

> <r_i_docking_score>
-7.38470811408424

> <r_i_glide_ligand_efficiency>
-0.32107426582975

> <r_i_glide_ligand_efficiency_sa>
-0.913092501718976

> <r_i_glide_ligand_efficiency_ln>
-1.78568938281662

> <r_i_glide_gscore>
-7.38470811408424

> <r_i_glide_lipo>
-0.784243416306362

> <r_i_glide_hbond>
-0.239997249014514

> <r_i_glide_metal>
-2.3

> <r_i_glide_rewards>
-1.40312410215179

> <r_i_glide_evdw>
-31.0869255065918

> <r_i_glide_ecoul>
-14.6181325912476

> <r_i_glide_erotb>
1.29463141369324

> <r_i_glide_esite>
-0.204908596288098

> <r_i_glide_emodel>
-69.1123060729035

> <r_i_glide_energy>
-45.7050580978394

> <r_i_glide_einternal>
4.18030786514282

> <i_i_glide_confnum>
5

> <i_i_glide_posenum>
163

> <r_i_glide_eff_state_penalty>
0

> <s_user_duplicate_titles>
CHEMBL3192_lig859

> <s_m_subgroup_title>
dock_pv

> <s_m_subgroupid>
dock_pv

> <b_m_subgroup_collapsed>
1

$$$$
CHEMBL3192_lig925
                    3D
 Schrodinger Suite 2021-1.
 42 43  0  0  1  0            999 V2000
  -18.1234   36.1491  -41.0346 C   0  0  0  0  0  0
  -18.5975   35.2286  -42.0683 N   0  0  0  0  0  0
  -17.7603   35.0375  -43.2538 C   0  0  0  0  0  0
  -19.7515   34.4256  -41.8527 C   0  0  0  0  0  0
  -20.5364   34.5824  -40.7010 C   0  0  0  0  0  0
  -21.6723   33.8064  -40.4905 C   0  0  0  0  0  0
  -22.0624   32.8421  -41.4315 C   0  0  0  0  0  0
  -23.3017   31.9912  -41.2401 C   0  0  0  0  0  0
  -23.8247   31.9710  -39.9813 N   0  0  0  0  0  0
  -24.8242   31.1745  -39.4652 N   0  0  0  0  0  0
  -25.8677   30.8993  -40.1541 C   0  0  0  0  0  0
  -26.8828   29.9361  -39.7213 C   0  0  0  0  0  0
  -28.1326   29.9063  -40.3401 C   0  0  0  0  0  0
  -29.0681   28.9401  -39.9809 C   0  0  0  0  0  0
  -28.7809   27.9669  -39.0156 C   0  0  0  0  0  0
  -29.7797   26.8690  -38.7037 C   0  0  0  0  0  0
  -29.8131   26.4151  -37.4392 N   0  0  0  0  0  0
  -30.6138   25.2946  -37.1555 O   0  0  0  0  0  0
  -30.5564   26.4690  -39.5809 O   0  0  0  0  0  0
  -27.5405   28.0215  -38.3810 C   0  0  0  0  0  0
  -26.6130   28.9992  -38.7219 C   0  0  0  0  0  0
  -23.7541   31.3454  -42.1918 O   0  0  0  0  0  0
  -21.2806   32.6777  -42.5810 C   0  0  0  0  0  0
  -20.1445   33.4552  -42.7859 C   0  0  0  0  0  0
  -18.8919   36.8834  -40.7910 H   0  0  0  0  0  0
  -17.2268   36.6912  -41.3387 H   0  0  0  0  0  0
  -17.8861   35.6024  -40.1210 H   0  0  0  0  0  0
  -18.3575   35.1000  -44.1647 H   0  0  0  0  0  0
  -16.9702   35.7854  -43.3262 H   0  0  0  0  0  0
  -17.2904   34.0531  -43.2308 H   0  0  0  0  0  0
  -20.2859   35.3111  -39.9462 H   0  0  0  0  0  0
  -22.2372   33.9822  -39.5848 H   0  0  0  0  0  0
  -23.2297   32.3543  -39.2591 H   0  0  0  0  0  0
  -26.0649   31.3630  -41.1175 H   0  0  0  0  0  0
  -28.3807   30.6141  -41.1186 H   0  0  0  0  0  0
  -30.0176   28.9424  -40.4953 H   0  0  0  0  0  0
  -29.2306   26.7091  -36.6618 H   0  0  0  0  0  0
  -29.9835   24.5685  -37.0839 H   0  0  0  0  0  0
  -27.2681   27.2896  -37.6340 H   0  0  0  0  0  0
  -25.6521   28.9925  -38.2281 H   0  0  0  0  0  0
  -21.5430   31.9428  -43.3298 H   0  0  0  0  0  0
  -19.5767   33.2817  -43.6854 H   0  0  0  0  0  0
  1  2  1  0  0  0
  1 25  1  0  0  0
  1 26  1  0  0  0
  1 27  1  0  0  0
  2  3  1  0  0  0
  2  4  1  0  0  0
  3 28  1  0  0  0
  3 29  1  0  0  0
  3 30  1  0  0  0
  4  5  2  0  0  0
  4 24  1  0  0  0
  5  6  1  0  0  0
  5 31  1  0  0  0
  6  7  2  0  0  0
  6 32  1  0  0  0
  7  8  1  0  0  0
  7 23  1  0  0  0
  8  9  1  0  0  0
  8 22  2  0  0  0
  9 10  1  0  0  0
  9 33  1  0  0  0
 10 11  2  0  0  0
 11 12  1  0  0  0
 11 34  1  0  0  0
 12 13  2  0  0  0
 12 21  1  0  0  0
 13 14  1  0  0  0
 13 35  1  0  0  0
 14 15  2  0  0  0
 14 36  1  0  0  0
 15 16  1  0  0  0
 15 20  1  0  0  0
 16 17  1  0  0  0
 16 19  2  0  0  0
 17 18  1  0  0  0
 17 37  1  0  0  0
 18 38  1  0  0  0
 20 21  2  0  0  0
 20 39  1  0  0  0
 21 40  1  0  0  0
 23 24  2  0  0  0
 23 41  1  0  0  0
 24 42  1  0  0  0
M  END
> <s_m_entry_id>
53038

> <s_m_entry_name>
dock_pv.257

> <s_m_Source_Path>
/home/csk/Desktop/cluster/DUD-E-result/hdac8

> <s_m_Source_File>
dock_pv.maegz

> <i_m_Source_File_Index>
257

> <chembl_id>
CHEMBL3764525

> <chembl_pref_name>
None

> <i_lp_mmshare_version>
53161

> <i_f3d_flags>
0

> <r_lp_tautomer_probability>
1

> <s_lp_Force_Field>
OPLS_2005

> <r_lp_Energy>
29.33088

> <b_lp_Chiralities_Consistent>
1

> <s_lp_Variant>
CHEMBL3192_lig925-1

> <s_i_glide_gridfile>
glide-grid_3f07

> <i_i_glide_lignum>
986

> <i_i_glide_rotatable_bonds>
8

> <r_i_docking_score>
-7.38146612770701

> <r_i_glide_ligand_efficiency>
-0.307561088654459

> <r_i_glide_ligand_efficiency_sa>
-0.887159694970529

> <r_i_glide_ligand_efficiency_ln>
-1.76672355777003

> <r_i_glide_gscore>
-7.38146612770701

> <r_i_glide_lipo>
-0.747865961563368

> <r_i_glide_hbond>
-0.601686498250264

> <r_i_glide_metal>
-2.3

> <r_i_glide_rewards>
-1.43704127937823

> <r_i_glide_evdw>
-18.6120338439941

> <r_i_glide_ecoul>
-14.3990573883057

> <r_i_glide_erotb>
1.05649603935931

> <r_i_glide_esite>
-0.260908127428901

> <r_i_glide_emodel>
-50.9136217402074

> <r_i_glide_energy>
-33.0110912322998

> <r_i_glide_einternal>
3.04936599731445

> <i_i_glide_confnum>
14

> <i_i_glide_posenum>
352

> <r_i_glide_eff_state_penalty>
0

> <s_user_duplicate_titles>
CHEMBL3192_lig925

> <s_m_subgroup_title>
dock_pv

> <s_m_subgroupid>
dock_pv

> <b_m_subgroup_collapsed>
1

$$$$
CHEMBL3192_lig223
                    3D
 Schrodinger Suite 2021-1.
 65 68  0  0  1  0            999 V2000
  -25.6625   30.4251  -39.3432 C   0  0  0  0  0  0
  -26.0142   31.5486  -40.0969 C   0  0  0  0  0  0
  -27.3165   31.6494  -40.6013 C   0  0  0  0  0  0
  -28.2381   30.6225  -40.3801 C   0  0  0  0  0  0
  -27.8850   29.4939  -39.6318 C   0  0  0  0  0  0
  -26.5949   29.4177  -39.0995 C   0  0  0  0  0  0
  -28.8645   28.4128  -39.4203 C   0  0  0  0  0  0
  -28.8657   27.5481  -38.3811 C   0  0  0  0  0  0
  -29.8130   26.4690  -38.2502 C   0  0  0  0  0  0
  -29.8240   25.9358  -37.0218 N   0  0  0  0  0  0
  -30.5221   26.0691  -39.1810 O   0  0  0  0  0  0
  -30.7008   24.8682  -36.7727 O   0  0  0  0  0  0
  -24.9522   32.6120  -40.3815 C   0  0  0  0  0  0
  -24.3105   32.5415  -41.7026 N   0  0  1  0  0  0
  -23.6990   31.2578  -42.0613 C   0  0  0  0  0  0
  -22.7364   31.4363  -43.2556 C   0  0  0  0  0  0
  -23.4011   32.1038  -44.4685 C   0  0  0  0  0  0
  -24.1583   33.3832  -44.0561 C   0  0  2  0  0  0
  -25.0446   33.1847  -42.7981 C   0  0  0  0  0  0
  -24.8817   34.0379  -45.2250 C   0  0  0  0  0  0
  -25.5468   35.4407  -46.8420 N   0  0  0  0  0  0
  -24.6182   35.2729  -45.8370 C   0  0  0  0  0  0
  -26.3821   34.3601  -46.9555 C   0  0  0  0  0  0
  -25.9825   33.4455  -45.9437 C   0  0  0  0  0  0
  -26.6723   32.2255  -45.8393 C   0  0  0  0  0  0
  -27.7003   31.9480  -46.7354 C   0  0  0  0  0  0
  -28.0754   32.8691  -47.7090 C   0  0  0  0  0  0
  -27.4325   34.0997  -47.8420 C   0  0  0  0  0  0
  -27.7090   32.7521  -41.2796 F   0  0  0  0  0  0
  -23.5490   36.3548  -45.5756 C   0  0  0  0  0  0
  -23.7492   36.9639  -44.1682 C   0  0  0  0  0  0
  -23.6286   37.5135  -46.6053 C   0  0  0  0  0  0
  -22.1316   35.7415  -45.6906 C   0  0  0  0  0  0
  -24.6618   30.3269  -38.9450 H   0  0  0  0  0  0
  -29.2320   30.7136  -40.7924 H   0  0  0  0  0  0
  -26.2886   28.5605  -38.5180 H   0  0  0  0  0  0
  -29.6109   28.3245  -40.1968 H   0  0  0  0  0  0
  -28.1401   27.6407  -37.5831 H   0  0  0  0  0  0
  -29.2934   26.2284  -36.2098 H   0  0  0  0  0  0
  -30.1446   24.0877  -36.8697 H   0  0  0  0  0  0
  -24.1784   32.5495  -39.6146 H   0  0  0  0  0  0
  -25.3930   33.5987  -40.2349 H   0  0  0  0  0  0
  -24.4705   30.5094  -42.2501 H   0  0  0  0  0  0
  -23.1182   30.8947  -41.2117 H   0  0  0  0  0  0
  -22.3531   30.4690  -43.5800 H   0  0  0  0  0  0
  -21.8579   31.9964  -42.9306 H   0  0  0  0  0  0
  -24.0920   31.3726  -44.8895 H   0  0  0  0  0  0
  -22.6235   32.3336  -45.1988 H   0  0  0  0  0  0
  -23.4022   34.0699  -43.6861 H   0  0  0  0  0  0
  -25.3770   34.1679  -42.4645 H   0  0  0  0  0  0
  -25.9576   32.6311  -43.0204 H   0  0  0  0  0  0
  -25.5542   36.2698  -47.4173 H   0  0  0  0  0  0
  -26.4025   31.5023  -45.0851 H   0  0  0  0  0  0
  -28.2128   30.9990  -46.6725 H   0  0  0  0  0  0
  -28.8848   32.6202  -48.3818 H   0  0  0  0  0  0
  -27.7304   34.8044  -48.6054 H   0  0  0  0  0  0
  -23.6729   36.2218  -43.3751 H   0  0  0  0  0  0
  -23.0090   37.7373  -43.9546 H   0  0  0  0  0  0
  -24.7378   37.4178  -44.0728 H   0  0  0  0  0  0
  -23.4986   37.1556  -47.6267 H   0  0  0  0  0  0
  -24.5875   38.0312  -46.5614 H   0  0  0  0  0  0
  -22.8510   38.2579  -46.4292 H   0  0  0  0  0  0
  -21.9954   35.2451  -46.6533 H   0  0  0  0  0  0
  -21.3531   36.5019  -45.6058 H   0  0  0  0  0  0
  -21.9242   34.9981  -44.9238 H   0  0  0  0  0  0
  1  6  1  0  0  0
  1  2  2  0  0  0
  1 34  1  0  0  0
  2  3  1  0  0  0
  2 13  1  0  0  0
  3 29  1  0  0  0
  3  4  2  0  0  0
  4  5  1  0  0  0
  4 35  1  0  0  0
  5  6  2  0  0  0
  5  7  1  0  0  0
  6 36  1  0  0  0
  7  8  2  0  0  0
  7 37  1  0  0  0
  8  9  1  0  0  0
  8 38  1  0  0  0
  9 10  1  0  0  0
  9 11  2  0  0  0
 10 12  1  0  0  0
 10 39  1  0  0  0
 12 40  1  0  0  0
 13 14  1  0  0  0
 13 41  1  0  0  0
 13 42  1  0  0  0
 14 19  1  0  0  0
 14 15  1  0  0  0
 15 16  1  0  0  0
 15 43  1  0  0  0
 15 44  1  0  0  0
 16 17  1  0  0  0
 16 45  1  0  0  0
 16 46  1  0  0  0
 17 18  1  0  0  0
 17 47  1  0  0  0
 17 48  1  0  0  0
 18 19  1  0  0  0
 18 20  1  0  0  0
 18 49  1  0  0  0
 19 50  1  0  0  0
 19 51  1  0  0  0
 20 24  1  0  0  0
 20 22  2  0  0  0
 21 23  1  0  0  0
 21 22  1  0  0  0
 21 52  1  0  0  0
 22 30  1  0  0  0
 23 24  2  0  0  0
 23 28  1  0  0  0
 24 25  1  0  0  0
 25 26  2  0  0  0
 25 53  1  0  0  0
 26 27  1  0  0  0
 26 54  1  0  0  0
 27 28  2  0  0  0
 27 55  1  0  0  0
 28 56  1  0  0  0
 30 31  1  0  0  0
 30 32  1  0  0  0
 30 33  1  0  0  0
 31 57  1  0  0  0
 31 58  1  0  0  0
 31 59  1  0  0  0
 32 60  1  0  0  0
 32 61  1  0  0  0
 32 62  1  0  0  0
 33 63  1  0  0  0
 33 64  1  0  0  0
 33 65  1  0  0  0
M  END
> <s_m_entry_id>
53039

> <s_m_entry_name>
dock_pv.258

> <s_m_Source_Path>
/home/csk/Desktop/cluster/DUD-E-result/hdac8

> <s_m_Source_File>
dock_pv.maegz

> <i_m_Source_File_Index>
258

> <chembl_id>
CHEMBL1093335

> <chembl_pref_name>
None

> <i_lp_mmshare_version>
53161

> <i_f3d_flags>
0

> <r_lp_tautomer_probability>
1

> <s_lp_Force_Field>
OPLS_2005

> <r_lp_Energy>
37.351716

> <b_lp_Chiralities_Consistent>
1

> <s_lp_Variant>
CHEMBL3192_lig223-1

> <s_i_glide_gridfile>
glide-grid_3f07

> <i_i_glide_lignum>
233

> <i_i_glide_rotatable_bonds>
8

> <r_i_docking_score>
-7.3801590028946

> <r_i_glide_ligand_efficiency>
-0.223641181905897

> <r_i_glide_ligand_efficiency_sa>
-0.717336767727948

> <r_i_glide_ligand_efficiency_ln>
-1.64130914982553

> <r_i_glide_gscore>
-7.3801590028946

> <r_i_glide_lipo>
-1.16852447481238

> <r_i_glide_hbond>
-0.358559804364327

> <r_i_glide_metal>
-2.3

> <r_i_glide_rewards>
-0.675775423202355

> <r_i_glide_evdw>
-30.1080760955811

> <r_i_glide_ecoul>
-12.148512840271

> <r_i_glide_erotb>
0.594996019481208

> <r_i_glide_esite>
-0.144614589177037

> <r_i_glide_emodel>
-52.9716316825424

> <r_i_glide_energy>
-42.2565889358521

> <r_i_glide_einternal>
25.9234809875488

> <i_i_glide_confnum>
4

> <i_i_glide_posenum>
1

> <r_i_glide_eff_state_penalty>
0

> <s_user_duplicate_titles>
CHEMBL3192_lig223,620618

> <s_m_subgroup_title>
dock_pv

> <s_m_subgroupid>
dock_pv

> <b_m_subgroup_collapsed>
1

$$$$
CHEMBL3192_lig1065
                    3D
 Schrodinger Suite 2021-1.
 42 44  0  0  1  0            999 V2000
  -30.5846   26.0137  -37.1067 O   0  0  0  0  0  0
  -29.5256   26.8690  -37.4666 N   0  0  0  0  0  0
  -29.4129   27.2626  -38.7432 C   0  0  0  0  0  0
  -30.2130   26.8689  -39.5832 O   0  0  0  0  0  0
  -28.3629   28.2974  -39.0801 C   0  0  0  0  0  0
  -27.1787   28.3087  -38.3712 C   0  0  0  0  0  0
  -26.2094   29.2694  -38.5879 C   0  0  0  0  0  0
  -26.3387   30.2238  -39.5802 C   0  0  0  0  0  0
  -25.1671   31.1766  -39.8426 C   0  0  0  0  0  0
  -25.5577   32.3684  -40.7317 C   0  0  0  0  0  0
  -26.4052   31.9202  -41.9328 C   0  0  2  0  0  0
  -27.7106   31.2694  -41.4391 C   0  0  0  0  0  0
  -27.5204   30.2218  -40.3513 C   0  0  0  0  0  0
  -28.5246   29.2690  -40.0820 C   0  0  0  0  0  0
  -25.6372   30.9252  -42.7225 N   0  0  2  0  0  0
  -24.6862   31.4531  -44.1003 S   0  0  0  0  0  0
  -23.8551   32.5822  -43.6708 O   0  0  0  0  0  0
  -24.0902   30.2510  -44.6967 O   0  0  0  0  0  0
  -25.8977   32.0949  -45.2573 C   0  0  0  0  0  0
  -26.4187   31.2687  -46.2559 C   0  0  0  0  0  0
  -27.3942   31.7491  -47.1304 C   0  0  0  0  0  0
  -27.8537   33.0606  -47.0089 C   0  0  0  0  0  0
  -27.3271   33.8950  -46.0222 C   0  0  0  0  0  0
  -27.7702   35.1665  -45.9057 F   0  0  0  0  0  0
  -26.3467   33.4166  -45.1522 C   0  0  0  0  0  0
  -31.1790   26.5826  -36.6069 H   0  0  0  0  0  0
  -29.0131   27.2209  -36.6614 H   0  0  0  0  0  0
  -27.0130   27.5743  -37.5967 H   0  0  0  0  0  0
  -25.3005   29.2446  -38.0045 H   0  0  0  0  0  0
  -24.7514   31.5427  -38.9014 H   0  0  0  0  0  0
  -24.3678   30.6118  -40.3252 H   0  0  0  0  0  0
  -26.1207   33.0841  -40.1295 H   0  0  0  0  0  0
  -24.6548   32.8850  -41.0618 H   0  0  0  0  0  0
  -26.5691   32.8263  -42.5154 H   0  0  0  0  0  0
  -28.2130   30.8186  -42.2870 H   0  0  0  0  0  0
  -28.3671   32.0470  -41.0502 H   0  0  0  0  0  0
  -29.4362   29.2903  -40.6629 H   0  0  0  0  0  0
  -26.1174   30.0356  -42.8657 H   0  0  0  0  0  0
  -26.0667   30.2530  -46.3509 H   0  0  0  0  0  0
  -27.7948   31.1064  -47.9011 H   0  0  0  0  0  0
  -28.6173   33.4326  -47.6773 H   0  0  0  0  0  0
  -25.9451   34.0736  -44.3940 H   0  0  0  0  0  0
  1  2  1  0  0  0
  1 26  1  0  0  0
  2  3  1  0  0  0
  2 27  1  0  0  0
  3  4  2  0  0  0
  3  5  1  0  0  0
  5  6  2  0  0  0
  5 14  1  0  0  0
  6  7  1  0  0  0
  6 28  1  0  0  0
  7  8  2  0  0  0
  7 29  1  0  0  0
  8  9  1  0  0  0
  8 13  1  0  0  0
  9 10  1  0  0  0
  9 30  1  0  0  0
  9 31  1  0  0  0
 10 11  1  0  0  0
 10 32  1  0  0  0
 10 33  1  0  0  0
 11 12  1  0  0  0
 11 15  1  0  0  0
 11 34  1  0  0  0
 12 13  1  0  0  0
 12 35  1  0  0  0
 12 36  1  0  0  0
 13 14  2  0  0  0
 14 37  1  0  0  0
 15 16  1  0  0  0
 15 38  1  0  0  0
 16 17  2  0  0  0
 16 18  2  0  0  0
 16 19  1  0  0  0
 19 20  2  0  0  0
 19 25  1  0  0  0
 20 21  1  0  0  0
 20 39  1  0  0  0
 21 22  2  0  0  0
 21 40  1  0  0  0
 22 23  1  0  0  0
 22 41  1  0  0  0
 23 24  1  0  0  0
 23 25  2  0  0  0
 25 42  1  0  0  0
M  END
> <s_m_entry_id>
53040

> <s_m_entry_name>
dock_pv.259

> <s_m_Source_Path>
/home/csk/Desktop/cluster/DUD-E-result/hdac8

> <s_m_Source_File>
dock_pv.maegz

> <i_m_Source_File_Index>
259

> <chembl_id>
CHEMBL3357484

> <chembl_pref_name>
None

> <i_lp_mmshare_version>
53161

> <i_f3d_flags>
0

> <r_lp_tautomer_probability>
1

> <s_lp_Force_Field>
OPLS_2005

> <r_lp_Energy>
27.254646

> <b_lp_Chiralities_Consistent>
1

> <s_lp_Variant>
CHEMBL3192_lig1065-1

> <s_i_glide_gridfile>
glide-grid_3f07

> <i_i_glide_lignum>
1169

> <i_i_glide_rotatable_bonds>
6

> <r_i_docking_score>
-7.37502673090761

> <r_i_glide_ligand_efficiency>
-0.295001069236304

> <r_i_glide_ligand_efficiency_sa>
-0.862588358313194

> <r_i_glide_ligand_efficiency_ln>
-1.74810234694168

> <r_i_glide_gscore>
-7.37502673090761

> <r_i_glide_lipo>
-1.387602915112

> <r_i_glide_hbond>
-0.608

> <r_i_glide_metal>
-1.64840648283048

> <r_i_glide_rewards>
-1.10214681326855

> <r_i_glide_evdw>
-21.347635269165

> <r_i_glide_ecoul>
-13.9026288986206

> <r_i_glide_erotb>
0.723905578554761

> <r_i_glide_esite>
-0.2

> <r_i_glide_emodel>
-52.1716400812288

> <r_i_glide_energy>
-35.2502641677856

> <r_i_glide_einternal>
0.784460127353668

> <i_i_glide_confnum>
129

> <i_i_glide_posenum>
199

> <r_i_glide_eff_state_penalty>
0

> <s_user_duplicate_titles>
CHEMBL3192_lig1065

> <s_m_subgroup_title>
dock_pv

> <s_m_subgroupid>
dock_pv

> <b_m_subgroup_collapsed>
1

$$$$
CHEMBL3192_lig246
                    3D
 Schrodinger Suite 2021-1.
 52 55  0  0  1  0            999 V2000
  -24.5016   30.9178  -42.2504 N   0  0  0  0  0  0
  -24.1841   31.0455  -46.3808 C   0  0  0  0  0  0
  -22.9964   31.2690  -45.6950 C   0  0  0  0  0  0
  -22.9188   31.1912  -44.3036 C   0  0  0  0  0  0
  -25.3422   30.6825  -45.7009 C   0  0  0  0  0  0
  -26.2779   30.2040  -43.4660 N   0  0  0  0  0  0
  -25.2894   30.5971  -44.3057 C   0  0  0  0  0  0
  -24.1068   30.9288  -43.5966 C   0  0  0  0  0  0
  -25.8121   30.4204  -42.2670 C   0  0  0  0  0  0
  -26.7506   30.2451  -41.1198 C   0  0  0  0  0  0
  -27.4850   31.3696  -40.7566 C   0  0  0  0  0  0
  -28.4784   31.2690  -39.7978 C   0  0  0  0  0  0
  -28.7788   30.0552  -39.2021 C   0  0  0  0  0  0
  -28.0983   28.8968  -39.5810 C   0  0  0  0  0  0
  -27.0709   29.0093  -40.5322 C   0  0  0  0  0  0
  -28.5577   27.5720  -39.1114 C   0  0  0  0  0  0
  -29.4130   27.3482  -38.0860 C   0  0  0  0  0  0
  -30.0253   26.0646  -37.8602 C   0  0  0  0  0  0
  -30.4868   25.8659  -36.6173 N   0  0  0  0  0  0
  -30.2132   25.2690  -38.7810 O   0  0  0  0  0  0
  -31.0130   24.5940  -36.3373 O   0  0  0  0  0  0
  -23.7511   31.3392  -41.0263 C   0  0  1  0  0  0
  -22.2401   31.6536  -41.2259 C   0  0  0  0  0  0
  -21.9643   33.0749  -41.7913 C   0  0  0  0  0  0
  -22.8149   34.1728  -41.1294 C   0  0  0  0  0  0
  -24.2333   33.7959  -41.0975 N   0  0  1  0  0  0
  -24.3713   32.5664  -40.3030 C   0  0  0  0  0  0
  -25.0068   34.8971  -40.5293 C   0  0  0  0  0  0
  -24.1967   31.1233  -47.4584 H   0  0  0  0  0  0
  -22.1020   31.5008  -46.2568 H   0  0  0  0  0  0
  -21.9620   31.3460  -43.8382 H   0  0  0  0  0  0
  -26.2560   30.4690  -46.2348 H   0  0  0  0  0  0
  -27.2939   32.3227  -41.2307 H   0  0  0  0  0  0
  -29.0130   32.1478  -39.5041 H   0  0  0  0  0  0
  -29.5872   30.0304  -38.4869 H   0  0  0  0  0  0
  -26.6130   28.1073  -40.8989 H   0  0  0  0  0  0
  -28.2130   26.7332  -39.7003 H   0  0  0  0  0  0
  -29.7153   28.1369  -37.4109 H   0  0  0  0  0  0
  -30.1544   26.3454  -35.7908 H   0  0  0  0  0  0
  -30.6661   24.0448  -37.0518 H   0  0  0  0  0  0
  -23.8069   30.4708  -40.3673 H   0  0  0  0  0  0
  -21.7709   31.5795  -40.2429 H   0  0  0  0  0  0
  -21.7165   30.8690  -41.7655 H   0  0  0  0  0  0
  -20.9100   33.3129  -41.6480 H   0  0  0  0  0  0
  -22.1146   33.1681  -42.8621 H   0  0  0  0  0  0
  -22.4502   34.4072  -40.1261 H   0  0  0  0  0  0
  -22.7164   35.0898  -41.7133 H   0  0  0  0  0  0
  -25.4033   32.3694  -40.0498 H   0  0  0  0  0  0
  -23.8959   32.7020  -39.3306 H   0  0  0  0  0  0
  -24.5968   35.2499  -39.5810 H   0  0  0  0  0  0
  -25.0107   35.7443  -41.2161 H   0  0  0  0  0  0
  -26.0449   34.6056  -40.3662 H   0  0  0  0  0  0
  1  8  1  0  0  0
  1  9  1  0  0  0
  1 22  1  0  0  0
  2  3  2  0  0  0
  2  5  1  0  0  0
  2 29  1  0  0  0
  3  4  1  0  0  0
  3 30  1  0  0  0
  4  8  2  0  0  0
  4 31  1  0  0  0
  5  7  2  0  0  0
  5 32  1  0  0  0
  6  7  1  0  0  0
  6  9  2  0  0  0
  7  8  1  0  0  0
  9 10  1  0  0  0
 10 15  1  0  0  0
 10 11  2  0  0  0
 11 12  1  0  0  0
 11 33  1  0  0  0
 12 13  2  0  0  0
 12 34  1  0  0  0
 13 14  1  0  0  0
 13 35  1  0  0  0
 14 15  2  0  0  0
 14 16  1  0  0  0
 15 36  1  0  0  0
 16 17  2  0  0  0
 16 37  1  0  0  0
 17 18  1  0  0  0
 17 38  1  0  0  0
 18 19  1  0  0  0
 18 20  2  0  0  0
 19 21  1  0  0  0
 19 39  1  0  0  0
 21 40  1  0  0  0
 22 23  1  0  0  0
 22 27  1  0  0  0
 22 41  1  0  0  0
 23 24  1  0  0  0
 23 42  1  0  0  0
 23 43  1  0  0  0
 24 25  1  0  0  0
 24 44  1  0  0  0
 24 45  1  0  0  0
 25 26  1  0  0  0
 25 46  1  0  0  0
 25 47  1  0  0  0
 26 27  1  0  0  0
 26 28  1  0  0  0
 27 48  1  0  0  0
 27 49  1  0  0  0
 28 50  1  0  0  0
 28 51  1  0  0  0
 28 52  1  0  0  0
M  END
> <s_m_entry_id>
53041

> <s_m_entry_name>
dock_pv.260

> <s_m_Source_Path>
/home/csk/Desktop/cluster/DUD-E-result/hdac8

> <s_m_Source_File>
dock_pv.maegz

> <i_m_Source_File_Index>
260

> <chembl_id>
CHEMBL1094158

> <chembl_pref_name>
None

> <i_lp_mmshare_version>
53161

> <i_f3d_flags>
0

> <r_lp_tautomer_probability>
1

> <s_lp_Force_Field>
OPLS_2005

> <r_lp_Energy>
39.236998

> <b_lp_Chiralities_Consistent>
1

> <s_lp_Variant>
CHEMBL3192_lig246-2

> <s_i_glide_gridfile>
glide-grid_3f07

> <i_i_glide_lignum>
258

> <i_i_glide_rotatable_bonds>
6

> <r_i_docking_score>
-7.374298188796

> <r_i_glide_ligand_efficiency>
-0.263367792457

> <r_i_glide_ligand_efficiency_sa>
-0.799739733233866

> <r_i_glide_ligand_efficiency_ln>
-1.70220454077727

> <r_i_glide_gscore>
-7.374298188796

> <r_i_glide_lipo>
-1.08352145624606

> <r_i_glide_hbond>
0

> <r_i_glide_metal>
-2.3

> <r_i_glide_rewards>
-1.20570459810201

> <r_i_glide_evdw>
-35.1434173583984

> <r_i_glide_ecoul>
-10.7073392868042

> <r_i_glide_erotb>
0.68298039006045

> <r_i_glide_esite>
-0.104780763567821

> <r_i_glide_emodel>
-62.9093576815095

> <r_i_glide_energy>
-45.8507566452026

> <r_i_glide_einternal>
7.32984304428101

> <i_i_glide_confnum>
101

> <i_i_glide_posenum>
2

> <r_i_glide_eff_state_penalty>
0

> <s_user_duplicate_titles>
CHEMBL3192_lig246,CHEMBL3192_lig248,625569,625567

> <s_m_subgroup_title>
dock_pv

> <s_m_subgroupid>
dock_pv

> <b_m_subgroup_collapsed>
1

$$$$
CHEMBL3192_lig1046
                    3D
 Schrodinger Suite 2021-1.
 50 53  0  0  1  0            999 V2000
  -26.7172   31.1275  -48.9425 C   0  0  0  0  0  0
  -27.2014   32.4426  -48.3421 C   0  0  0  0  0  0
  -28.0810   33.2141  -49.1099 C   0  0  0  0  0  0
  -28.6130   34.3978  -48.6102 C   0  0  0  0  0  0
  -29.6891   35.3354  -49.5810 Cl  0  0  0  0  0  0
  -28.2743   34.8188  -47.3285 C   0  0  0  0  0  0
  -27.3961   34.0597  -46.5567 C   0  0  0  0  0  0
  -26.8367   32.8661  -47.0421 C   0  0  0  0  0  0
  -25.8797   32.1069  -46.1760 C   0  0  0  0  0  0
  -24.6666   31.5966  -46.6585 C   0  0  0  0  0  0
  -23.8671   30.8817  -45.7667 C   0  0  0  0  0  0
  -24.2186   30.6846  -44.4722 N   0  0  0  0  0  0
  -25.3721   31.2693  -44.0620 C   0  0  0  0  0  0
  -25.6381   31.1465  -42.6935 N   0  0  0  0  0  0
  -26.5435   32.0345  -41.9564 C   0  0  2  0  0  0
  -25.8227   32.5817  -40.7141 C   0  0  0  0  0  0
  -25.3718   31.4432  -39.7778 C   0  0  0  0  0  0
  -26.4493   30.3730  -39.5787 C   0  0  0  0  0  0
  -26.2723   29.4213  -38.5878 C   0  0  0  0  0  0
  -27.2018   28.4136  -38.3810 C   0  0  0  0  0  0
  -28.3705   28.3276  -39.1269 C   0  0  0  0  0  0
  -28.5461   29.2690  -40.1500 C   0  0  0  0  0  0
  -27.5942   30.2760  -40.3984 C   0  0  0  0  0  0
  -27.8130   31.2754  -41.5251 C   0  0  0  0  0  0
  -29.3908   27.2476  -38.8217 C   0  0  0  0  0  0
  -30.2130   26.8690  -39.6500 O   0  0  0  0  0  0
  -29.4130   26.7662  -37.5788 N   0  0  0  0  0  0
  -30.2468   25.6690  -37.2901 O   0  0  0  0  0  0
  -26.2246   31.9669  -44.8633 N   0  0  0  0  0  0
  -27.4130   30.7512  -49.6930 H   0  0  0  0  0  0
  -25.7416   31.2492  -49.4118 H   0  0  0  0  0  0
  -26.6533   30.3519  -48.1805 H   0  0  0  0  0  0
  -28.3661   32.8875  -50.0995 H   0  0  0  0  0  0
  -28.6874   35.7352  -46.9335 H   0  0  0  0  0  0
  -27.1390   34.4126  -45.5683 H   0  0  0  0  0  0
  -24.3493   31.7521  -47.6780 H   0  0  0  0  0  0
  -22.9174   30.4737  -46.0787 H   0  0  0  0  0  0
  -25.0562   30.5271  -42.1504 H   0  0  0  0  0  0
  -26.8457   32.8617  -42.6009 H   0  0  0  0  0  0
  -26.4890   33.2533  -40.1701 H   0  0  0  0  0  0
  -24.9639   33.1906  -41.0015 H   0  0  0  0  0  0
  -25.0685   31.8546  -38.8143 H   0  0  0  0  0  0
  -24.4814   30.9646  -40.1878 H   0  0  0  0  0  0
  -25.3785   29.4500  -37.9821 H   0  0  0  0  0  0
  -27.0130   27.6974  -37.5957 H   0  0  0  0  0  0
  -29.4346   29.2362  -40.7649 H   0  0  0  0  0  0
  -28.2130   30.7492  -42.3810 H   0  0  0  0  0  0
  -28.5617   31.9893  -41.1810 H   0  0  0  0  0  0
  -28.8235   27.0469  -36.7989 H   0  0  0  0  0  0
  -29.6342   24.9327  -37.1810 H   0  0  0  0  0  0
  1  2  1  0  0  0
  1 30  1  0  0  0
  1 31  1  0  0  0
  1 32  1  0  0  0
  2  3  2  0  0  0
  2  8  1  0  0  0
  3  4  1  0  0  0
  3 33  1  0  0  0
  4  5  1  0  0  0
  4  6  2  0  0  0
  6  7  1  0  0  0
  6 34  1  0  0  0
  7  8  2  0  0  0
  7 35  1  0  0  0
  8  9  1  0  0  0
  9 10  2  0  0  0
  9 29  1  0  0  0
 10 11  1  0  0  0
 10 36  1  0  0  0
 11 12  2  0  0  0
 11 37  1  0  0  0
 12 13  1  0  0  0
 13 14  1  0  0  0
 13 29  2  0  0  0
 14 15  1  0  0  0
 14 38  1  0  0  0
 15 16  1  0  0  0
 15 24  1  0  0  0
 15 39  1  0  0  0
 16 17  1  0  0  0
 16 40  1  0  0  0
 16 41  1  0  0  0
 17 18  1  0  0  0
 17 42  1  0  0  0
 17 43  1  0  0  0
 18 19  2  0  0  0
 18 23  1  0  0  0
 19 20  1  0  0  0
 19 44  1  0  0  0
 20 21  2  0  0  0
 20 45  1  0  0  0
 21 22  1  0  0  0
 21 25  1  0  0  0
 22 23  2  0  0  0
 22 46  1  0  0  0
 23 24  1  0  0  0
 24 47  1  0  0  0
 24 48  1  0  0  0
 25 26  2  0  0  0
 25 27  1  0  0  0
 27 28  1  0  0  0
 27 49  1  0  0  0
 28 50  1  0  0  0
M  END
> <s_m_entry_id>
53043

> <s_m_entry_name>
dock_pv.262

> <s_m_Source_Path>
/home/csk/Desktop/cluster/DUD-E-result/hdac8

> <s_m_Source_File>
dock_pv.maegz

> <i_m_Source_File_Index>
262

> <chembl_id>
CHEMBL3694295

> <chembl_pref_name>
None

> <i_lp_mmshare_version>
53161

> <i_f3d_flags>
0

> <r_lp_tautomer_probability>
0.999999987636

> <s_lp_Force_Field>
OPLS_2005

> <r_lp_Energy>
29.558953

> <b_lp_Chiralities_Consistent>
1

> <s_lp_Variant>
CHEMBL3192_lig1046-1

> <s_i_glide_gridfile>
glide-grid_3f07

> <i_i_glide_lignum>
1131

> <i_i_glide_rotatable_bonds>
6

> <r_i_docking_score>
-7.37287041750481

> <r_i_glide_ligand_efficiency>
-0.254236910948442

> <r_i_glide_ligand_efficiency_sa>
-0.781096338340564

> <r_i_glide_ligand_efficiency_ln>
-1.68820036574615

> <r_i_glide_gscore>
-7.37287041750481

> <r_i_glide_lipo>
-1.22059703825583

> <r_i_glide_hbond>
-0.608

> <r_i_glide_metal>
-1.85369903089506

> <r_i_glide_rewards>
-0.871385015838276

> <r_i_glide_evdw>
-26.0756053924561

> <r_i_glide_ecoul>
-12.6943311691284

> <r_i_glide_erotb>
0.588740612476423

> <r_i_glide_esite>
-0.2

> <r_i_glide_emodel>
-54.5187607974447

> <r_i_glide_energy>
-38.7699365615845

> <r_i_glide_einternal>
3.62385153770447

> <i_i_glide_confnum>
107

> <i_i_glide_posenum>
349

> <r_i_glide_eff_state_penalty>
0

> <s_user_duplicate_titles>
CHEMBL3192_lig1046

> <s_m_subgroup_title>
dock_pv

> <s_m_subgroupid>
dock_pv

> <b_m_subgroup_collapsed>
1

$$$$
CHEMBL3192_lig368
                    3D
 Schrodinger Suite 2021-1.
 51 52  0  0  1  0            999 V2000
  -22.5761   32.1346  -45.4076 C   0  0  0  0  0  0
  -23.0138   30.8690  -44.2003 S   0  0  0  0  0  0
  -24.6358   31.5939  -43.8516 C   0  0  0  0  0  0
  -25.3136   31.9175  -45.5156 S   0  0  0  0  0  0
  -23.7469   32.2188  -46.3889 C   0  0  0  0  0  0
  -26.6472   31.6376  -42.4977 C   0  0  2  0  0  0
  -25.5549   30.6950  -43.0359 C   0  0  0  0  0  0
  -24.5941   32.8505  -42.9639 C   0  0  0  0  0  0
  -25.9398   32.9322  -42.3735 N   0  0  0  0  0  0
  -27.2450   31.0654  -41.1896 C   0  0  0  0  0  0
  -26.4691   31.0693  -40.0918 N   0  0  0  0  0  0
  -28.4082   30.6650  -41.1810 O   0  0  0  0  0  0
  -26.8710   30.5692  -38.7810 C   0  0  0  0  0  0
  -26.6527   29.0551  -38.6079 C   0  0  0  0  0  0
  -27.4688   28.1229  -39.5321 C   0  0  0  0  0  0
  -28.9825   28.1087  -39.2166 C   0  0  0  0  0  0
  -29.3406   27.2748  -37.9596 C   0  0  0  0  0  0
  -30.3470   26.1242  -38.1404 C   0  0  0  0  0  0
  -30.4763   25.2690  -37.1121 N   0  0  0  0  0  0
  -31.0130   26.0690  -39.1810 O   0  0  0  0  0  0
  -31.4130   24.2277  -37.2178 O   0  0  0  0  0  0
  -26.4420   34.0448  -41.7637 C   0  0  0  0  0  0
  -25.5504   35.2904  -41.5526 C   0  0  0  0  0  0
  -27.6077   34.0953  -41.3570 O   0  0  0  0  0  0
  -24.3717   34.9594  -40.7810 N   0  0  0  0  0  0
  -22.4201   33.0769  -44.8815 H   0  0  0  0  0  0
  -21.6450   31.8658  -45.9076 H   0  0  0  0  0  0
  -23.7832   33.1872  -46.8885 H   0  0  0  0  0  0
  -23.6574   31.4496  -47.1567 H   0  0  0  0  0  0
  -27.4549   31.6900  -43.2243 H   0  0  0  0  0  0
  -24.9822   30.2415  -42.2229 H   0  0  0  0  0  0
  -25.9680   29.8598  -43.6031 H   0  0  0  0  0  0
  -24.3329   33.7344  -43.5471 H   0  0  0  0  0  0
  -23.8601   32.7121  -42.1683 H   0  0  0  0  0  0
  -25.5564   31.4980  -40.1519 H   0  0  0  0  0  0
  -27.9218   30.8132  -38.6278 H   0  0  0  0  0  0
  -26.3116   31.1126  -38.0170 H   0  0  0  0  0  0
  -26.8893   28.7934  -37.5810 H   0  0  0  0  0  0
  -25.5880   28.8690  -38.7288 H   0  0  0  0  0  0
  -27.0761   27.1073  -39.4588 H   0  0  0  0  0  0
  -27.3030   28.3899  -40.5739 H   0  0  0  0  0  0
  -29.5097   27.7516  -40.0917 H   0  0  0  0  0  0
  -29.3520   29.1275  -39.0966 H   0  0  0  0  0  0
  -29.7180   27.9389  -37.1810 H   0  0  0  0  0  0
  -28.4137   26.8690  -37.5778 H   0  0  0  0  0  0
  -29.9629   25.2602  -36.2405 H   0  0  0  0  0  0
  -30.8694   23.4515  -37.4056 H   0  0  0  0  0  0
  -25.2854   35.7188  -42.5197 H   0  0  0  0  0  0
  -26.1169   36.0612  -41.0271 H   0  0  0  0  0  0
  -23.7621   35.7584  -40.6779 H   0  0  0  0  0  0
  -24.6130   34.6881  -39.8275 H   0  0  0  0  0  0
  1  2  1  0  0  0
  1  5  1  0  0  0
  1 26  1  0  0  0
  1 27  1  0  0  0
  2  3  1  0  0  0
  3  7  1  0  0  0
  3  8  1  0  0  0
  3  4  1  0  0  0
  4  5  1  0  0  0
  5 28  1  0  0  0
  5 29  1  0  0  0
  6  7  1  0  0  0
  6  9  1  0  0  0
  6 10  1  0  0  0
  6 30  1  0  0  0
  7 31  1  0  0  0
  7 32  1  0  0  0
  8  9  1  0  0  0
  8 33  1  0  0  0
  8 34  1  0  0  0
  9 22  1  0  0  0
 10 11  1  0  0  0
 10 12  2  0  0  0
 11 13  1  0  0  0
 11 35  1  0  0  0
 13 14  1  0  0  0
 13 36  1  0  0  0
 13 37  1  0  0  0
 14 15  1  0  0  0
 14 38  1  0  0  0
 14 39  1  0  0  0
 15 16  1  0  0  0
 15 40  1  0  0  0
 15 41  1  0  0  0
 16 17  1  0  0  0
 16 42  1  0  0  0
 16 43  1  0  0  0
 17 18  1  0  0  0
 17 44  1  0  0  0
 17 45  1  0  0  0
 18 19  1  0  0  0
 18 20  2  0  0  0
 19 21  1  0  0  0
 19 46  1  0  0  0
 21 47  1  0  0  0
 22 23  1  0  0  0
 22 24  2  0  0  0
 23 25  1  0  0  0
 23 48  1  0  0  0
 23 49  1  0  0  0
 25 50  1  0  0  0
 25 51  1  0  0  0
M  END
> <s_m_entry_id>
53044

> <s_m_entry_name>
dock_pv.263

> <s_m_Source_Path>
/home/csk/Desktop/cluster/DUD-E-result/hdac8

> <s_m_Source_File>
dock_pv.maegz

> <i_m_Source_File_Index>
263

> <chembl_id>
CHEMBL1835344

> <chembl_pref_name>
None

> <i_lp_mmshare_version>
53161

> <i_f3d_flags>
0

> <r_lp_tautomer_probability>
1

> <s_lp_Force_Field>
OPLS_2005

> <r_lp_Energy>
29.379979

> <b_lp_Chiralities_Consistent>
1

> <s_lp_Variant>
CHEMBL3192_lig368-1

> <s_i_glide_gridfile>
glide-grid_3f07

> <i_i_glide_lignum>
387

> <i_i_glide_rotatable_bonds>
12

> <r_i_docking_score>
-7.37106777954254

> <r_i_glide_ligand_efficiency>
-0.294842711181702

> <r_i_glide_ligand_efficiency_sa>
-0.862125316553044

> <r_i_glide_ligand_efficiency_ln>
-1.74716395682796

> <r_i_glide_gscore>
-7.37106777954254

> <r_i_glide_lipo>
-0.795256041891319

> <r_i_glide_hbond>
-0.303154800725514

> <r_i_glide_metal>
-2.3

> <r_i_glide_rewards>
-0.745730371297178

> <r_i_glide_evdw>
-32.7510452270508

> <r_i_glide_ecoul>
-18.285737991333

> <r_i_glide_erotb>
1.27896721701427

> <r_i_glide_esite>
-0.125480822590305

> <r_i_glide_emodel>
-76.0566417503653

> <r_i_glide_energy>
-51.0367832183838

> <r_i_glide_einternal>
8.42312431335449

> <i_i_glide_confnum>
513

> <i_i_glide_posenum>
337

> <r_i_glide_eff_state_penalty>
0

> <s_user_duplicate_titles>
CHEMBL3192_lig368

> <s_m_subgroup_title>
dock_pv

> <s_m_subgroupid>
dock_pv

> <b_m_subgroup_collapsed>
1

$$$$
CHEMBL3192_lig736
                    3D
 Schrodinger Suite 2021-1.
 40 41  0  0  1  0            999 V2000
  -25.9858   30.9004  -38.6444 C   0  0  0  0  0  0
  -26.6116   29.5081  -38.8880 C   0  0  0  0  0  0
  -28.0836   29.5604  -39.3350 C   0  0  0  0  0  0
  -28.7612   28.1803  -39.4104 C   0  0  0  0  0  0
  -29.0736   27.5238  -38.0412 C   0  0  0  0  0  0
  -30.0333   26.3205  -38.1186 C   0  0  0  0  0  0
  -30.2130   25.6013  -36.9988 N   0  0  0  0  0  0
  -30.6130   26.0690  -39.1810 O   0  0  0  0  0  0
  -31.0479   24.4729  -37.0630 O   0  0  0  0  0  0
  -24.5619   31.0645  -39.2180 C   0  0  0  0  0  0
  -24.5227   31.2189  -40.7252 C   0  0  0  0  0  0
  -25.5202   31.3598  -41.5577 N   0  0  0  0  0  0
  -24.8997   31.4763  -42.7153 C   0  0  0  0  0  0
  -23.5838   31.4338  -42.6767 N   0  0  0  0  0  0
  -23.3086   31.2690  -41.3219 O   0  0  0  0  0  0
  -25.6523   31.6781  -43.9917 C   0  0  0  0  0  0
  -26.6594   32.6525  -44.0205 C   0  0  0  0  0  0
  -27.3851   32.8962  -45.1866 C   0  0  0  0  0  0
  -27.1107   32.1678  -46.3415 C   0  0  0  0  0  0
  -26.1129   31.1954  -46.3260 C   0  0  0  0  0  0
  -25.3897   30.9385  -45.1586 C   0  0  0  0  0  0
  -24.2130   29.6690  -45.1810 Cl  0  0  0  0  0  0
  -26.6130   31.6909  -39.0571 H   0  0  0  0  0  0
  -25.9646   31.0966  -37.5733 H   0  0  0  0  0  0
  -26.5137   28.9117  -37.9810 H   0  0  0  0  0  0
  -26.0491   28.9695  -39.6512 H   0  0  0  0  0  0
  -28.1189   30.0196  -40.3246 H   0  0  0  0  0  0
  -28.6669   30.2203  -38.6955 H   0  0  0  0  0  0
  -28.1255   27.5033  -39.9810 H   0  0  0  0  0  0
  -29.6785   28.3098  -39.9847 H   0  0  0  0  0  0
  -29.5245   28.2593  -37.3737 H   0  0  0  0  0  0
  -28.1378   27.2142  -37.5810 H   0  0  0  0  0  0
  -29.7768   25.7315  -36.0951 H   0  0  0  0  0  0
  -30.4334   23.7368  -37.1810 H   0  0  0  0  0  0
  -24.0987   31.9480  -38.7810 H   0  0  0  0  0  0
  -23.9403   30.2246  -38.9050 H   0  0  0  0  0  0
  -26.8769   33.2328  -43.1351 H   0  0  0  0  0  0
  -28.1580   33.6508  -45.1956 H   0  0  0  0  0  0
  -27.6727   32.3531  -47.2459 H   0  0  0  0  0  0
  -25.9107   30.6266  -47.2213 H   0  0  0  0  0  0
  1  2  1  0  0  0
  1 10  1  0  0  0
  1 23  1  0  0  0
  1 24  1  0  0  0
  2  3  1  0  0  0
  2 25  1  0  0  0
  2 26  1  0  0  0
  3  4  1  0  0  0
  3 27  1  0  0  0
  3 28  1  0  0  0
  4  5  1  0  0  0
  4 29  1  0  0  0
  4 30  1  0  0  0
  5  6  1  0  0  0
  5 31  1  0  0  0
  5 32  1  0  0  0
  6  7  1  0  0  0
  6  8  2  0  0  0
  7  9  1  0  0  0
  7 33  1  0  0  0
  9 34  1  0  0  0
 10 11  1  0  0  0
 10 35  1  0  0  0
 10 36  1  0  0  0
 11 12  2  0  0  0
 11 15  1  0  0  0
 12 13  1  0  0  0
 13 14  2  0  0  0
 13 16  1  0  0  0
 14 15  1  0  0  0
 16 17  2  0  0  0
 16 21  1  0  0  0
 17 18  1  0  0  0
 17 37  1  0  0  0
 18 19  2  0  0  0
 18 38  1  0  0  0
 19 20  1  0  0  0
 19 39  1  0  0  0
 20 21  2  0  0  0
 20 40  1  0  0  0
 21 22  1  0  0  0
M  END
> <s_m_entry_id>
53045

> <s_m_entry_name>
dock_pv.264

> <s_m_Source_Path>
/home/csk/Desktop/cluster/DUD-E-result/hdac8

> <s_m_Source_File>
dock_pv.maegz

> <i_m_Source_File_Index>
264

> <chembl_id>
CHEMBL3585964

> <chembl_pref_name>
None

> <i_lp_mmshare_version>
53161

> <i_f3d_flags>
0

> <r_lp_tautomer_probability>
1

> <s_lp_Force_Field>
OPLS_2005

> <r_lp_Energy>
18.322978

> <b_lp_Chiralities_Consistent>
1

> <s_lp_Variant>
CHEMBL3192_lig736-1

> <s_i_glide_gridfile>
glide-grid_3f07

> <i_i_glide_lignum>
787

> <i_i_glide_rotatable_bonds>
10

> <r_i_docking_score>
-7.37012753929513

> <r_i_glide_ligand_efficiency>
-0.335005797240688

> <r_i_glide_ligand_efficiency_sa>
-0.938699418898785

> <r_i_glide_ligand_efficiency_ln>
-1.8015280025376

> <r_i_glide_gscore>
-7.37012753929513

> <r_i_glide_lipo>
-1.37769566864837

> <r_i_glide_hbond>
-0.222006605062842

> <r_i_glide_metal>
-2.3

> <r_i_glide_rewards>
-1.25006403644528

> <r_i_glide_evdw>
-30.2373466491699

> <r_i_glide_ecoul>
-14.6635570526123

> <r_i_glide_erotb>
1.60705715078981

> <r_i_glide_esite>
-0.11601748957811

> <r_i_glide_emodel>
-67.594664077607

> <r_i_glide_energy>
-44.9009037017822

> <r_i_glide_einternal>
5.46485567092896

> <i_i_glide_confnum>
104

> <i_i_glide_posenum>
138

> <r_i_glide_eff_state_penalty>
0

> <s_user_duplicate_titles>
CHEMBL3192_lig736

> <s_m_subgroup_title>
dock_pv

> <s_m_subgroupid>
dock_pv

> <b_m_subgroup_collapsed>
1

$$$$
CHEMBL3192_lig1030
                    3D
 Schrodinger Suite 2021-1.
 38 40  0  0  1  0            999 V2000
  -30.2664   25.6690  -37.2925 O   0  0  0  0  0  0
  -29.4130   26.7508  -37.5809 N   0  0  0  0  0  0
  -29.3874   27.2376  -38.8225 C   0  0  0  0  0  0
  -30.2130   26.8690  -39.6529 O   0  0  0  0  0  0
  -28.3471   28.3000  -39.1173 C   0  0  0  0  0  0
  -27.1743   28.3190  -38.3810 C   0  0  0  0  0  0
  -26.1937   29.2691  -38.5903 C   0  0  0  0  0  0
  -26.2998   30.2107  -39.5952 C   0  0  0  0  0  0
  -25.1620   31.2087  -39.8021 C   0  0  0  0  0  0
  -25.1179   31.7167  -41.2493 C   0  0  0  0  0  0
  -26.4906   32.2487  -41.6864 C   0  0  1  0  0  0
  -27.5705   31.1420  -41.5810 C   0  0  0  0  0  0
  -27.4631   30.2054  -40.3887 C   0  0  0  0  0  0
  -28.4852   29.2690  -40.1234 C   0  0  0  0  0  0
  -26.8561   33.4038  -40.8634 N   0  0  0  0  0  0
  -27.6295   34.4799  -41.3180 C   0  0  0  0  0  0
  -28.1167   34.5869  -42.6301 C   0  0  0  0  0  0
  -28.8791   35.7026  -42.9800 C   0  0  0  0  0  0
  -29.1319   36.6867  -42.0251 C   0  0  0  0  0  0
  -28.6130   36.5150  -40.7427 C   0  0  0  0  0  0
  -27.8876   35.4268  -40.3814 N   0  0  0  0  0  0
  -29.6669   24.9224  -37.1809 H   0  0  0  0  0  0
  -28.8226   27.0246  -36.7993 H   0  0  0  0  0  0
  -27.0130   27.5924  -37.5990 H   0  0  0  0  0  0
  -25.3018   29.2527  -37.9811 H   0  0  0  0  0  0
  -25.2974   32.0476  -39.1185 H   0  0  0  0  0  0
  -24.2020   30.7609  -39.5394 H   0  0  0  0  0  0
  -24.3594   32.4955  -41.3459 H   0  0  0  0  0  0
  -24.8072   30.9097  -41.9147 H   0  0  0  0  0  0
  -26.4214   32.5620  -42.7275 H   0  0  0  0  0  0
  -27.4927   30.5222  -42.4740 H   0  0  0  0  0  0
  -28.5695   31.5633  -41.5810 H   0  0  0  0  0  0
  -29.3717   29.2727  -40.7418 H   0  0  0  0  0  0
  -26.6291   33.3761  -39.8776 H   0  0  0  0  0  0
  -27.9190   33.8384  -43.3803 H   0  0  0  0  0  0
  -29.2591   35.8089  -43.9857 H   0  0  0  0  0  0
  -29.7037   37.5680  -42.2770 H   0  0  0  0  0  0
  -28.7679   37.2656  -39.9810 H   0  0  0  0  0  0
  1  2  1  0  0  0
  1 22  1  0  0  0
  2  3  1  0  0  0
  2 23  1  0  0  0
  3  4  2  0  0  0
  3  5  1  0  0  0
  5  6  2  0  0  0
  5 14  1  0  0  0
  6  7  1  0  0  0
  6 24  1  0  0  0
  7  8  2  0  0  0
  7 25  1  0  0  0
  8  9  1  0  0  0
  8 13  1  0  0  0
  9 10  1  0  0  0
  9 26  1  0  0  0
  9 27  1  0  0  0
 10 11  1  0  0  0
 10 28  1  0  0  0
 10 29  1  0  0  0
 11 12  1  0  0  0
 11 15  1  0  0  0
 11 30  1  0  0  0
 12 13  1  0  0  0
 12 31  1  0  0  0
 12 32  1  0  0  0
 13 14  2  0  0  0
 14 33  1  0  0  0
 15 16  1  0  0  0
 15 34  1  0  0  0
 16 17  2  0  0  0
 16 21  1  0  0  0
 17 18  1  0  0  0
 17 35  1  0  0  0
 18 19  2  0  0  0
 18 36  1  0  0  0
 19 20  1  0  0  0
 19 37  1  0  0  0
 20 21  2  0  0  0
 20 38  1  0  0  0
M  END
> <s_m_entry_id>
53046

> <s_m_entry_name>
dock_pv.265

> <s_m_Source_Path>
/home/csk/Desktop/cluster/DUD-E-result/hdac8

> <s_m_Source_File>
dock_pv.maegz

> <i_m_Source_File_Index>
265

> <chembl_id>
CHEMBL3357476

> <chembl_pref_name>
None

> <i_lp_mmshare_version>
53161

> <i_f3d_flags>
0

> <r_lp_tautomer_probability>
0.999999772200052

> <s_lp_Force_Field>
OPLS_2005

> <r_lp_Energy>
21.642757

> <b_lp_Chiralities_Consistent>
1

> <s_lp_Variant>
CHEMBL3192_lig1030-2

> <s_i_glide_gridfile>
glide-grid_3f07

> <i_i_glide_lignum>
1100

> <i_i_glide_rotatable_bonds>
5

> <r_i_docking_score>
-7.36835450200272

> <r_i_glide_ligand_efficiency>
-0.350874023904891

> <r_i_glide_ligand_efficiency_sa>
-0.968034826432931

> <r_i_glide_ligand_efficiency_ln>
-1.82181076145796

> <r_i_glide_gscore>
-7.36835450200272

> <r_i_glide_lipo>
-0.89224363924872

> <r_i_glide_hbond>
-0.608

> <r_i_glide_metal>
-1.86226394353848

> <r_i_glide_rewards>
-1.71554225501017

> <r_i_glide_evdw>
-15.5293016433716

> <r_i_glide_ecoul>
-14.3910722732544

> <r_i_glide_erotb>
0.902347502501414

> <r_i_glide_esite>
-0.257526243550025

> <r_i_glide_emodel>
-45.076910776106

> <r_i_glide_energy>
-29.920373916626

> <r_i_glide_einternal>
3.65887141227722

> <i_i_glide_confnum>
40

> <i_i_glide_posenum>
331

> <r_i_glide_eff_state_penalty>
0

> <s_user_duplicate_titles>
CHEMBL3192_lig1030

> <s_m_subgroup_title>
dock_pv

> <s_m_subgroupid>
dock_pv

> <b_m_subgroup_collapsed>
1

$$$$
CHEMBL3192_lig233
                    3D
 Schrodinger Suite 2021-1.
 55 58  0  0  1  0            999 V2000
  -25.0532   31.4172  -46.7971 C   0  0  0  0  0  0
  -23.7722   31.8483  -46.4504 C   0  0  0  0  0  0
  -23.3282   31.8576  -45.1253 C   0  0  0  0  0  0
  -25.9504   30.9647  -45.8288 C   0  0  0  0  0  0
  -26.2129   30.5568  -43.3830 N   0  0  0  0  0  0
  -25.5294   30.9579  -44.4926 C   0  0  0  0  0  0
  -24.2327   31.4091  -44.1543 C   0  0  0  0  0  0
  -24.1652   31.2694  -42.7784 N   0  0  0  0  0  0
  -25.4045   30.7775  -42.3707 C   0  0  0  0  0  0
  -25.8260   30.4679  -40.9612 C   0  0  0  0  0  0
  -25.3890   31.2104  -39.8592 C   0  0  0  0  0  0
  -25.8130   30.8852  -38.5767 C   0  0  0  0  0  0
  -26.6916   29.8279  -38.3810 C   0  0  0  0  0  0
  -27.1528   29.0666  -39.4495 C   0  0  0  0  0  0
  -26.7285   29.4177  -40.7350 C   0  0  0  0  0  0
  -28.0675   27.9244  -39.2476 C   0  0  0  0  0  0
  -28.9329   27.7486  -38.2236 C   0  0  0  0  0  0
  -29.8130   26.6066  -38.1559 C   0  0  0  0  0  0
  -30.2129   26.2785  -36.9158 N   0  0  0  0  0  0
  -30.2369   26.0690  -39.1808 O   0  0  0  0  0  0
  -31.0897   25.1918  -36.7674 O   0  0  0  0  0  0
  -23.0031   31.6373  -41.9562 C   0  0  0  0  0  0
  -22.8198   33.1546  -41.6420 C   0  0  0  0  0  0
  -23.6244   34.0994  -42.4312 N   0  0  0  0  0  0
  -22.9174   35.3740  -42.6271 C   0  0  0  0  0  0
  -23.7145   36.3320  -43.5372 C   0  0  0  0  0  0
  -25.1415   36.5679  -43.0192 C   0  0  0  0  0  0
  -25.8281   35.2210  -42.7485 C   0  0  0  0  0  0
  -24.9655   34.3045  -41.8580 C   0  0  0  0  0  0
  -25.3548   31.4363  -47.8345 H   0  0  0  0  0  0
  -23.1061   32.1919  -47.2288 H   0  0  0  0  0  0
  -22.3379   32.2038  -44.8672 H   0  0  0  0  0  0
  -26.9416   30.6322  -46.0991 H   0  0  0  0  0  0
  -24.7376   32.0616  -39.9716 H   0  0  0  0  0  0
  -25.4766   31.4736  -37.7369 H   0  0  0  0  0  0
  -27.0130   29.6037  -37.3786 H   0  0  0  0  0  0
  -27.0971   28.8690  -41.5810 H   0  0  0  0  0  0
  -27.9990   27.1528  -39.9959 H   0  0  0  0  0  0
  -29.0132   28.4684  -37.4236 H   0  0  0  0  0  0
  -29.8847   26.6632  -36.0382 H   0  0  0  0  0  0
  -30.5237   24.4805  -36.4516 H   0  0  0  0  0  0
  -23.0207   31.0577  -41.0342 H   0  0  0  0  0  0
  -22.1130   31.2689  -42.4676 H   0  0  0  0  0  0
  -22.9711   33.3394  -40.5762 H   0  0  0  0  0  0
  -21.7603   33.3694  -41.7942 H   0  0  0  0  0  0
  -22.7045   35.8321  -41.6586 H   0  0  0  0  0  0
  -21.9510   35.1740  -43.0940 H   0  0  0  0  0  0
  -23.1904   37.2862  -43.5985 H   0  0  0  0  0  0
  -23.7240   35.9437  -44.5567 H   0  0  0  0  0  0
  -25.7169   37.1534  -43.7367 H   0  0  0  0  0  0
  -25.1047   37.1515  -42.0979 H   0  0  0  0  0  0
  -26.0670   34.7046  -43.6796 H   0  0  0  0  0  0
  -26.7874   35.3950  -42.2603 H   0  0  0  0  0  0
  -25.4776   33.3510  -41.7565 H   0  0  0  0  0  0
  -24.8763   34.7087  -40.8471 H   0  0  0  0  0  0
  1  2  2  0  0  0
  1  4  1  0  0  0
  1 30  1  0  0  0
  2  3  1  0  0  0
  2 31  1  0  0  0
  3  7  2  0  0  0
  3 32  1  0  0  0
  4  6  2  0  0  0
  4 33  1  0  0  0
  5  6  1  0  0  0
  5  9  2  0  0  0
  6  7  1  0  0  0
  7  8  1  0  0  0
  8  9  1  0  0  0
  8 22  1  0  0  0
  9 10  1  0  0  0
 10 15  1  0  0  0
 10 11  2  0  0  0
 11 12  1  0  0  0
 11 34  1  0  0  0
 12 13  2  0  0  0
 12 35  1  0  0  0
 13 14  1  0  0  0
 13 36  1  0  0  0
 14 15  2  0  0  0
 14 16  1  0  0  0
 15 37  1  0  0  0
 16 17  2  0  0  0
 16 38  1  0  0  0
 17 18  1  0  0  0
 17 39  1  0  0  0
 18 19  1  0  0  0
 18 20  2  0  0  0
 19 21  1  0  0  0
 19 40  1  0  0  0
 21 41  1  0  0  0
 22 23  1  0  0  0
 22 42  1  0  0  0
 22 43  1  0  0  0
 23 24  1  0  0  0
 23 44  1  0  0  0
 23 45  1  0  0  0
 24 25  1  0  0  0
 24 29  1  0  0  0
 25 26  1  0  0  0
 25 46  1  0  0  0
 25 47  1  0  0  0
 26 27  1  0  0  0
 26 48  1  0  0  0
 26 49  1  0  0  0
 27 28  1  0  0  0
 27 50  1  0  0  0
 27 51  1  0  0  0
 28 29  1  0  0  0
 28 52  1  0  0  0
 28 53  1  0  0  0
 29 54  1  0  0  0
 29 55  1  0  0  0
M  END
> <s_m_entry_id>
53047

> <s_m_entry_name>
dock_pv.266

> <s_m_Source_Path>
/home/csk/Desktop/cluster/DUD-E-result/hdac8

> <s_m_Source_File>
dock_pv.maegz

> <i_m_Source_File_Index>
266

> <chembl_id>
CHEMBL1099057

> <chembl_pref_name>
None

> <i_lp_mmshare_version>
53161

> <i_f3d_flags>
0

> <r_lp_tautomer_probability>
1

> <s_lp_Force_Field>
OPLS_2005

> <r_lp_Energy>
40.507572

> <b_lp_Chiralities_Consistent>
1

> <s_lp_Variant>
CHEMBL3192_lig233-1

> <s_i_glide_gridfile>
glide-grid_3f07

> <i_i_glide_lignum>
243

> <i_i_glide_rotatable_bonds>
8

> <r_i_docking_score>
-7.36749854472715

> <r_i_glide_ligand_efficiency>
-0.254051673956109

> <r_i_glide_ligand_efficiency_sa>
-0.780527231612919

> <r_i_glide_ligand_efficiency_ln>
-1.68697034309901

> <r_i_glide_gscore>
-7.36749854472715

> <r_i_glide_lipo>
-1.29280532966317

> <r_i_glide_hbond>
-0.221719243817441

> <r_i_glide_metal>
-2.3

> <r_i_glide_rewards>
-0.888080505542613

> <r_i_glide_evdw>
-31.6872234344482

> <r_i_glide_ecoul>
-12.5066366195679

> <r_i_glide_erotb>
0.895463198953668

> <r_i_glide_esite>
-0.1

> <r_i_glide_emodel>
-67.341336285724

> <r_i_glide_energy>
-44.1938600540161

> <r_i_glide_einternal>
5.22958087921143

> <i_i_glide_confnum>
4

> <i_i_glide_posenum>
351

> <r_i_glide_eff_state_penalty>
0

> <s_user_duplicate_titles>
CHEMBL3192_lig233,626573

> <s_m_subgroup_title>
dock_pv

> <s_m_subgroupid>
dock_pv

> <b_m_subgroup_collapsed>
1

$$$$
CHEMBL3192_lig1038
                    3D
 Schrodinger Suite 2021-1.
 47 50  0  0  1  0            999 V2000
  -30.2341   25.6708  -37.2938 O   0  0  0  0  0  0
  -29.4130   26.7796  -37.5808 N   0  0  0  0  0  0
  -29.3849   27.2541  -38.8280 C   0  0  0  0  0  0
  -30.2130   26.8690  -39.6516 O   0  0  0  0  0  0
  -28.3464   28.3220  -39.1357 C   0  0  0  0  0  0
  -27.1816   28.3853  -38.3810 C   0  0  0  0  0  0
  -26.2130   29.3514  -38.6000 C   0  0  0  0  0  0
  -26.3385   30.2832  -39.6160 C   0  0  0  0  0  0
  -25.1907   31.2690  -39.8668 C   0  0  0  0  0  0
  -25.5897   32.4376  -40.7805 C   0  0  0  0  0  0
  -26.3366   31.8858  -41.9981 C   0  0  1  0  0  0
  -27.6680   31.2597  -41.5351 C   0  0  0  0  0  0
  -27.4960   30.2377  -40.4211 C   0  0  0  0  0  0
  -28.4895   29.2690  -40.1635 C   0  0  0  0  0  0
  -26.6130   32.9686  -42.9414 N   0  0  0  0  0  0
  -26.8506   32.7147  -44.3004 C   0  0  0  0  0  0
  -26.4005   31.5608  -44.8641 N   0  0  0  0  0  0
  -26.6837   31.3767  -46.1767 C   0  0  0  0  0  0
  -27.4135   32.3009  -46.9231 C   0  0  0  0  0  0
  -27.8385   33.4694  -46.2729 C   0  0  0  0  0  0
  -27.5501   33.6755  -44.9545 N   0  0  0  0  0  0
  -28.6496   34.5250  -46.9610 C   0  0  0  0  0  0
  -29.4728   35.3984  -46.2307 C   0  0  0  0  0  0
  -30.2450   36.3627  -46.8727 C   0  0  0  0  0  0
  -30.2024   36.4689  -48.2591 C   0  0  0  0  0  0
  -31.1715   37.6510  -49.0594 Cl  0  0  0  0  0  0
  -29.3848   35.6246  -49.0038 C   0  0  0  0  0  0
  -28.6133   34.6618  -48.3576 C   0  0  0  0  0  0
  -29.6128   24.9424  -37.1814 H   0  0  0  0  0  0
  -28.8221   27.0610  -36.8021 H   0  0  0  0  0  0
  -27.0130   27.6728  -37.5875 H   0  0  0  0  0  0
  -25.3196   29.3493  -37.9923 H   0  0  0  0  0  0
  -24.8062   31.6576  -38.9216 H   0  0  0  0  0  0
  -24.3674   30.7205  -40.3275 H   0  0  0  0  0  0
  -26.2131   33.1423  -40.2261 H   0  0  0  0  0  0
  -24.6977   32.9900  -41.0815 H   0  0  0  0  0  0
  -25.7303   31.1183  -42.4839 H   0  0  0  0  0  0
  -28.1503   30.7809  -42.3809 H   0  0  0  0  0  0
  -28.3417   32.0381  -41.1763 H   0  0  0  0  0  0
  -29.3799   29.2665  -40.7763 H   0  0  0  0  0  0
  -27.0309   33.8076  -42.5693 H   0  0  0  0  0  0
  -26.3176   30.4690  -46.6282 H   0  0  0  0  0  0
  -27.6459   32.0987  -47.9579 H   0  0  0  0  0  0
  -29.5313   35.3258  -45.1547 H   0  0  0  0  0  0
  -30.8800   37.0196  -46.2968 H   0  0  0  0  0  0
  -29.3511   35.7118  -50.0797 H   0  0  0  0  0  0
  -27.9850   34.0244  -48.9608 H   0  0  0  0  0  0
  1  2  1  0  0  0
  1 29  1  0  0  0
  2  3  1  0  0  0
  2 30  1  0  0  0
  3  4  2  0  0  0
  3  5  1  0  0  0
  5  6  2  0  0  0
  5 14  1  0  0  0
  6  7  1  0  0  0
  6 31  1  0  0  0
  7  8  2  0  0  0
  7 32  1  0  0  0
  8  9  1  0  0  0
  8 13  1  0  0  0
  9 10  1  0  0  0
  9 33  1  0  0  0
  9 34  1  0  0  0
 10 11  1  0  0  0
 10 35  1  0  0  0
 10 36  1  0  0  0
 11 12  1  0  0  0
 11 15  1  0  0  0
 11 37  1  0  0  0
 12 13  1  0  0  0
 12 38  1  0  0  0
 12 39  1  0  0  0
 13 14  2  0  0  0
 14 40  1  0  0  0
 15 16  1  0  0  0
 15 41  1  0  0  0
 16 17  2  0  0  0
 16 21  1  0  0  0
 17 18  1  0  0  0
 18 19  2  0  0  0
 18 42  1  0  0  0
 19 20  1  0  0  0
 19 43  1  0  0  0
 20 21  2  0  0  0
 20 22  1  0  0  0
 22 23  2  0  0  0
 22 28  1  0  0  0
 23 24  1  0  0  0
 23 44  1  0  0  0
 24 25  2  0  0  0
 24 45  1  0  0  0
 25 26  1  0  0  0
 25 27  1  0  0  0
 27 28  2  0  0  0
 27 46  1  0  0  0
 28 47  1  0  0  0
M  END
> <s_m_entry_id>
53048

> <s_m_entry_name>
dock_pv.267

> <s_m_Source_Path>
/home/csk/Desktop/cluster/DUD-E-result/hdac8

> <s_m_Source_File>
dock_pv.maegz

> <i_m_Source_File_Index>
267

> <chembl_id>
CHEMBL3357479

> <chembl_pref_name>
None

> <i_lp_mmshare_version>
53161

> <i_f3d_flags>
0

> <r_lp_tautomer_probability>
0.999999987636

> <s_lp_Force_Field>
OPLS_2005

> <r_lp_Energy>
21.998493

> <b_lp_Chiralities_Consistent>
1

> <s_lp_Variant>
CHEMBL3192_lig1038-2

> <s_i_glide_gridfile>
glide-grid_3f07

> <i_i_glide_lignum>
1116

> <i_i_glide_rotatable_bonds>
6

> <r_i_docking_score>
-7.36632895163245

> <r_i_glide_ligand_efficiency>
-0.263083176844016

> <r_i_glide_ligand_efficiency_sa>
-0.798875472603215

> <r_i_glide_ligand_efficiency_ln>
-1.70036500685295

> <r_i_glide_gscore>
-7.36632895163245

> <r_i_glide_lipo>
-1.32052749144381

> <r_i_glide_hbond>
-0.608

> <r_i_glide_metal>
-1.85838115385506

> <r_i_glide_rewards>
-0.961046125145611

> <r_i_glide_evdw>
-22.7291259765625

> <r_i_glide_ecoul>
-12.7164850234985

> <r_i_glide_erotb>
0.626935321326681

> <r_i_glide_esite>
-0.201380450161743

> <r_i_glide_emodel>
-53.2529981258165

> <r_i_glide_energy>
-35.445611000061

> <r_i_glide_einternal>
3.33027577400208

> <i_i_glide_confnum>
2

> <i_i_glide_posenum>
210

> <r_i_glide_eff_state_penalty>
0

> <s_user_duplicate_titles>
CHEMBL3192_lig1038

> <s_m_subgroup_title>
dock_pv

> <s_m_subgroupid>
dock_pv

> <b_m_subgroup_collapsed>
1

$$$$
CHEMBL3192_lig432
                    3D
 Schrodinger Suite 2021-1.
 47 49  0  0  1  0            999 V2000
  -28.5762   28.9104  -39.0578 C   0  0  0  0  0  0
  -28.6316   27.5938  -38.7219 N   0  0  0  0  0  0
  -24.2514   30.8749  -44.4809 C   0  0  0  0  0  0
  -29.6001   26.9188  -37.9108 C   0  0  0  0  0  0
  -27.4091   29.3996  -39.8571 C   0  0  0  0  0  0
  -24.4051   31.7636  -43.4173 N   0  0  0  0  0  0
  -29.4130   29.7618  -38.7873 O   0  0  0  0  0  0
  -24.0363   29.6716  -44.3810 O   0  0  0  0  0  0
  -24.3189   31.4664  -45.7114 O   0  0  0  0  0  0
  -28.0905   34.1686  -45.2687 N   0  0  0  0  0  0
  -29.9435   25.5893  -38.1798 C   0  0  0  0  0  0
  -27.6140   29.7996  -41.1798 C   0  0  0  0  0  0
  -26.1879   29.6673  -39.2378 C   0  0  0  0  0  0
  -26.0769   33.0953  -46.0813 C   0  0  0  0  0  0
  -24.5814   32.8491  -45.9578 C   0  0  0  0  0  0
  -24.2224   31.3964  -42.0070 C   0  0  0  0  0  0
  -25.3699   30.6848  -41.2840 C   0  0  0  0  0  0
  -26.5973   30.4221  -41.8994 C   0  0  0  0  0  0
  -25.1788   30.3157  -39.9477 C   0  0  0  0  0  0
  -29.4131   24.8726  -39.1810 O   0  0  0  0  0  0
  -26.7673   33.8848  -45.1544 C   0  0  0  0  0  0
  -30.2132   27.5031  -36.7814 C   0  0  0  0  0  0
  -28.7551   33.6705  -46.3418 C   0  0  0  0  0  0
  -30.7989   24.8698  -37.3783 C   0  0  0  0  0  0
  -26.7853   32.5806  -47.1713 C   0  0  0  0  0  0
  -28.1420   32.8724  -47.3105 C   0  0  0  0  0  0
  -31.0128   26.7708  -35.9236 C   0  0  0  0  0  0
  -31.2714   25.4456  -36.2331 C   0  0  0  0  0  0
  -27.8953   27.0038  -39.0836 H   0  0  0  0  0  0
  -24.6192   32.7237  -43.6310 H   0  0  0  0  0  0
  -28.5758   29.6536  -41.6488 H   0  0  0  0  0  0
  -26.0240   29.4138  -38.2004 H   0  0  0  0  0  0
  -24.1223   33.5068  -45.2197 H   0  0  0  0  0  0
  -24.1252   33.1152  -46.9112 H   0  0  0  0  0  0
  -24.0232   32.3190  -41.4617 H   0  0  0  0  0  0
  -23.3198   30.7929  -41.9034 H   0  0  0  0  0  0
  -26.7837   30.7198  -42.9208 H   0  0  0  0  0  0
  -24.2418   30.5298  -39.4518 H   0  0  0  0  0  0
  -28.7533   24.2645  -38.7978 H   0  0  0  0  0  0
  -26.2645   34.3161  -44.3026 H   0  0  0  0  0  0
  -29.9938   28.5281  -36.5511 H   0  0  0  0  0  0
  -29.8007   33.9209  -46.4196 H   0  0  0  0  0  0
  -31.0283   23.8324  -37.5836 H   0  0  0  0  0  0
  -26.2871   31.9734  -47.9128 H   0  0  0  0  0  0
  -28.7029   32.4922  -48.1499 H   0  0  0  0  0  0
  -31.4093   27.2177  -35.0229 H   0  0  0  0  0  0
  -31.8141   24.8131  -35.5810 H   0  0  0  0  0  0
  1  2  1  0  0  0
  1  5  1  0  0  0
  1  7  2  0  0  0
  2  4  1  0  0  0
  2 29  1  0  0  0
  3  6  1  0  0  0
  3  8  2  0  0  0
  3  9  1  0  0  0
  4 11  1  0  0  0
  4 22  2  0  0  0
  5 12  1  0  0  0
  5 13  2  0  0  0
  6 16  1  0  0  0
  6 30  1  0  0  0
  9 15  1  0  0  0
 10 21  2  0  0  0
 10 23  1  0  0  0
 11 20  1  0  0  0
 11 24  2  0  0  0
 12 18  2  0  0  0
 12 31  1  0  0  0
 13 19  1  0  0  0
 13 32  1  0  0  0
 14 15  1  0  0  0
 14 21  1  0  0  0
 14 25  2  0  0  0
 15 33  1  0  0  0
 15 34  1  0  0  0
 16 17  1  0  0  0
 16 35  1  0  0  0
 16 36  1  0  0  0
 17 19  2  0  0  0
 17 18  1  0  0  0
 18 37  1  0  0  0
 19 38  1  0  0  0
 20 39  1  0  0  0
 21 40  1  0  0  0
 22 27  1  0  0  0
 22 41  1  0  0  0
 23 26  2  0  0  0
 23 42  1  0  0  0
 24 28  1  0  0  0
 24 43  1  0  0  0
 25 26  1  0  0  0
 25 44  1  0  0  0
 26 45  1  0  0  0
 27 28  2  0  0  0
 27 46  1  0  0  0
 28 47  1  0  0  0
M  END
> <s_m_entry_id>
53049

> <s_m_entry_name>
dock_pv.268

> <s_m_Source_Path>
/home/csk/Desktop/cluster/DUD-E-result/hdac8

> <s_m_Source_File>
dock_pv.maegz

> <i_m_Source_File_Index>
268

> <chembl_id>
CHEMBL419716

> <chembl_pref_name>
None

> <i_lp_mmshare_version>
53161

> <i_f3d_flags>
0

> <r_lp_tautomer_probability>
0.999999999997365

> <s_lp_Force_Field>
OPLS_2005

> <r_lp_Energy>
21.571476

> <b_lp_Chiralities_Consistent>
1

> <s_lp_Variant>
CHEMBL3192_lig432-1

> <s_i_glide_gridfile>
glide-grid_3f07

> <i_i_glide_lignum>
451

> <i_i_glide_rotatable_bonds>
10

> <r_i_docking_score>
-7.35738614542493

> <r_i_glide_ligand_efficiency>
-0.262763790908033

> <r_i_glide_ligand_efficiency_sa>
-0.797905628793315

> <r_i_glide_ligand_efficiency_ln>
-1.69830074460806

> <r_i_glide_gscore>
-7.35738614542493

> <r_i_glide_lipo>
-1.81392249459983

> <r_i_glide_hbond>
-0.652363700795909

> <r_i_glide_metal>
-2.3

> <r_i_glide_rewards>
-0.30979922678075

> <r_i_glide_evdw>
-11.0151309967041

> <r_i_glide_ecoul>
-18.1678085327148

> <r_i_glide_erotb>
1.08789166276141

> <r_i_glide_esite>
-0.0932645562674228

> <r_i_glide_emodel>
-25.8496366820981

> <r_i_glide_energy>
-29.1829395294189

> <r_i_glide_einternal>
17.3232364654541

> <i_i_glide_confnum>
16

> <i_i_glide_posenum>
109

> <r_i_glide_eff_state_penalty>
0

> <s_user_duplicate_titles>
CHEMBL3192_lig432

> <s_m_subgroup_title>
dock_pv

> <s_m_subgroupid>
dock_pv

> <b_m_subgroup_collapsed>
1

$$$$
CHEMBL3192_lig67
                    3D
 Schrodinger Suite 2021-1.
 27 28  0  0  1  0            999 V2000
  -26.2537   30.2141  -40.9257 C   0  0  0  0  0  0
  -26.8578   30.0690  -42.2011 C   0  0  0  0  0  0
  -26.2470   30.5552  -43.3555 C   0  0  0  0  0  0
  -25.0363   31.2276  -43.2855 C   0  0  0  0  0  0
  -24.4235   31.4327  -42.0564 C   0  0  0  0  0  0
  -25.0170   30.9399  -40.8676 C   0  0  0  0  0  0
  -24.9879   30.6848  -38.4626 C   0  0  0  0  0  0
  -26.1809   29.9789  -38.5095 C   0  0  0  0  0  0
  -26.8197   29.6791  -39.7139 C   0  0  0  0  0  0
  -24.3979   31.1580  -39.6209 C   0  0  0  0  0  0
  -28.0179   28.7912  -39.6681 C   0  0  0  0  0  0
  -28.2191   27.8219  -38.7380 C   0  0  0  0  0  0
  -29.4130   27.0115  -38.6539 C   0  0  0  0  0  0
  -30.2130   26.8690  -39.5810 O   0  0  0  0  0  0
  -29.6371   26.4690  -37.4502 N   0  0  0  0  0  0
  -30.7967   25.6961  -37.2602 O   0  0  0  0  0  0
  -27.8130   29.5801  -42.2842 H   0  0  0  0  0  0
  -26.7276   30.4236  -44.3143 H   0  0  0  0  0  0
  -24.5775   31.6077  -44.1867 H   0  0  0  0  0  0
  -23.4889   31.9730  -42.0014 H   0  0  0  0  0  0
  -24.5012   30.8690  -37.5206 H   0  0  0  0  0  0
  -26.6130   29.6411  -37.5810 H   0  0  0  0  0  0
  -23.4713   31.7129  -39.5660 H   0  0  0  0  0  0
  -28.7817   28.9802  -40.4082 H   0  0  0  0  0  0
  -27.4734   27.6242  -37.9810 H   0  0  0  0  0  0
  -29.0874   26.5984  -36.6072 H   0  0  0  0  0  0
  -31.3456   26.2445  -36.6912 H   0  0  0  0  0  0
  1  9  1  0  0  0
  1  6  1  0  0  0
  1  2  2  0  0  0
  2  3  1  0  0  0
  2 17  1  0  0  0
  3  4  2  0  0  0
  3 18  1  0  0  0
  4  5  1  0  0  0
  4 19  1  0  0  0
  5  6  2  0  0  0
  5 20  1  0  0  0
  6 10  1  0  0  0
  7 10  2  0  0  0
  7  8  1  0  0  0
  7 21  1  0  0  0
  8  9  2  0  0  0
  8 22  1  0  0  0
  9 11  1  0  0  0
 10 23  1  0  0  0
 11 12  2  0  0  0
 11 24  1  0  0  0
 12 13  1  0  0  0
 12 25  1  0  0  0
 13 14  2  0  0  0
 13 15  1  0  0  0
 15 16  1  0  0  0
 15 26  1  0  0  0
 16 27  1  0  0  0
M  END
> <s_m_entry_id>
53050

> <s_m_entry_name>
dock_pv.269

> <s_m_Source_Path>
/home/csk/Desktop/cluster/DUD-E-result/hdac8

> <s_m_Source_File>
dock_pv.maegz

> <i_m_Source_File_Index>
269

> <chembl_id>
CHEMBL245548

> <chembl_pref_name>
None

> <i_lp_mmshare_version>
53161

> <i_f3d_flags>
0

> <r_lp_tautomer_probability>
1

> <s_lp_Force_Field>
OPLS_2005

> <r_lp_Energy>
23.396966

> <b_lp_Chiralities_Consistent>
1

> <s_lp_Variant>
CHEMBL3192_lig67-1

> <s_i_glide_gridfile>
glide-grid_3f07

> <i_i_glide_lignum>
69

> <i_i_glide_rotatable_bonds>
4

> <r_i_docking_score>
-7.34666858683907

> <r_i_glide_ligand_efficiency>
-0.459166786677442

> <r_i_glide_ligand_efficiency_sa>
-1.15702779882568

> <r_i_glide_ligand_efficiency_ln>
-1.94738126197795

> <r_i_glide_gscore>
-7.34666858683907

> <r_i_glide_lipo>
-1.24784379105255

> <r_i_glide_hbond>
-0.584191068418711

> <r_i_glide_metal>
-1.64111292543411

> <r_i_glide_rewards>
-2.11131692893105

> <r_i_glide_evdw>
-20.2154922485352

> <r_i_glide_ecoul>
-11.0797996520996

> <r_i_glide_erotb>
1.10044677151097

> <r_i_glide_esite>
-0.189906084271916

> <r_i_glide_emodel>
-47.0163956555336

> <r_i_glide_energy>
-31.2952919006348

> <r_i_glide_einternal>
0.700262904167175

> <i_i_glide_confnum>
1

> <i_i_glide_posenum>
251

> <r_i_glide_eff_state_penalty>
0

> <s_user_duplicate_titles>
CHEMBL3192_lig67,410987

> <s_m_subgroup_title>
dock_pv

> <s_m_subgroupid>
dock_pv

> <b_m_subgroup_collapsed>
1

$$$$
CHEMBL3192_lig855
                    3D
 Schrodinger Suite 2021-1.
 51 53  0  0  1  0            999 V2000
  -31.0130   24.4931  -37.6944 O   0  0  0  0  0  0
  -30.1375   25.5650  -37.4568 N   0  0  0  0  0  0
  -29.9528   26.4690  -38.4319 C   0  0  0  0  0  0
  -30.6003   26.4690  -39.4881 O   0  0  0  0  0  0
  -28.9235   27.5809  -38.1790 C   0  0  0  0  0  0
  -28.3381   28.2067  -39.4653 C   0  0  0  0  0  0
  -27.3528   29.3516  -39.1841 C   0  0  0  0  0  0
  -26.8148   30.0173  -40.4657 C   0  0  0  0  0  0
  -25.7855   31.1167  -40.1490 C   0  0  0  0  0  0
  -25.1358   31.7872  -41.3874 C   0  0  0  0  0  0
  -26.0405   32.4957  -42.3346 N   0  0  0  0  0  0
  -26.7868   33.6072  -41.8156 C   0  0  0  0  0  0
  -26.4836   34.1952  -40.5743 C   0  0  0  0  0  0
  -27.2340   35.2690  -40.0945 C   0  0  0  0  0  0
  -28.2467   35.8037  -40.8836 C   0  0  0  0  0  0
  -28.4913   35.2173  -42.1215 C   0  0  0  0  0  0
  -27.7929   34.1445  -42.5691 N   0  0  0  0  0  0
  -25.8493   32.2060  -43.7253 C   0  0  0  0  0  0
  -24.6243   31.7283  -44.2296 C   0  0  0  0  0  0
  -24.4578   31.5038  -45.5953 C   0  0  0  0  0  0
  -25.5214   31.7916  -46.4794 C   0  0  0  0  0  0
  -25.4211   31.6383  -47.8841 C   0  0  0  0  0  0
  -26.4988   31.9777  -48.7003 C   0  0  0  0  0  0
  -27.6793   32.4690  -48.1490 C   0  0  0  0  0  0
  -27.8130   32.6123  -46.7704 C   0  0  0  0  0  0
  -26.7361   32.2780  -45.9165 C   0  0  0  0  0  0
  -26.8836   32.4526  -44.5773 N   0  0  0  0  0  0
  -30.4258   23.7260  -37.7733 H   0  0  0  0  0  0
  -29.6564   25.5017  -36.5691 H   0  0  0  0  0  0
  -29.4130   28.3510  -37.5810 H   0  0  0  0  0  0
  -28.1022   27.1932  -37.5810 H   0  0  0  0  0  0
  -27.8130   27.4324  -40.0265 H   0  0  0  0  0  0
  -29.1395   28.5844  -40.1027 H   0  0  0  0  0  0
  -27.8368   30.1080  -38.5660 H   0  0  0  0  0  0
  -26.5182   28.9674  -38.5945 H   0  0  0  0  0  0
  -26.3530   29.2620  -41.1036 H   0  0  0  0  0  0
  -27.6406   30.4415  -41.0394 H   0  0  0  0  0  0
  -26.2547   31.8480  -39.4944 H   0  0  0  0  0  0
  -24.9827   30.6931  -39.5431 H   0  0  0  0  0  0
  -24.2871   32.4111  -41.1007 H   0  0  0  0  0  0
  -24.7178   30.9241  -41.9023 H   0  0  0  0  0  0
  -25.6507   33.8571  -39.9810 H   0  0  0  0  0  0
  -27.0130   35.6951  -39.1273 H   0  0  0  0  0  0
  -28.8134   36.6599  -40.5466 H   0  0  0  0  0  0
  -29.2540   35.6058  -42.7810 H   0  0  0  0  0  0
  -23.7688   31.5681  -43.5923 H   0  0  0  0  0  0
  -23.5139   31.1506  -45.9858 H   0  0  0  0  0  0
  -24.5017   31.2712  -48.3167 H   0  0  0  0  0  0
  -26.4190   31.8661  -49.7719 H   0  0  0  0  0  0
  -28.5067   32.7245  -48.7957 H   0  0  0  0  0  0
  -28.7337   32.9880  -46.3470 H   0  0  0  0  0  0
  1  2  1  0  0  0
  1 28  1  0  0  0
  2  3  1  0  0  0
  2 29  1  0  0  0
  3  4  2  0  0  0
  3  5  1  0  0  0
  5  6  1  0  0  0
  5 30  1  0  0  0
  5 31  1  0  0  0
  6  7  1  0  0  0
  6 32  1  0  0  0
  6 33  1  0  0  0
  7  8  1  0  0  0
  7 34  1  0  0  0
  7 35  1  0  0  0
  8  9  1  0  0  0
  8 36  1  0  0  0
  8 37  1  0  0  0
  9 10  1  0  0  0
  9 38  1  0  0  0
  9 39  1  0  0  0
 10 11  1  0  0  0
 10 40  1  0  0  0
 10 41  1  0  0  0
 11 12  1  0  0  0
 11 18  1  0  0  0
 12 13  2  0  0  0
 12 17  1  0  0  0
 13 14  1  0  0  0
 13 42  1  0  0  0
 14 15  2  0  0  0
 14 43  1  0  0  0
 15 16  1  0  0  0
 15 44  1  0  0  0
 16 17  2  0  0  0
 16 45  1  0  0  0
 18 19  2  0  0  0
 18 27  1  0  0  0
 19 20  1  0  0  0
 19 46  1  0  0  0
 20 21  2  0  0  0
 20 47  1  0  0  0
 21 22  1  0  0  0
 21 26  1  0  0  0
 22 23  2  0  0  0
 22 48  1  0  0  0
 23 24  1  0  0  0
 23 49  1  0  0  0
 24 25  2  0  0  0
 24 50  1  0  0  0
 25 26  1  0  0  0
 25 51  1  0  0  0
 26 27  2  0  0  0
M  END
> <s_m_entry_id>
53051

> <s_m_entry_name>
dock_pv.270

> <s_m_Source_Path>
/home/csk/Desktop/cluster/DUD-E-result/hdac8

> <s_m_Source_File>
dock_pv.maegz

> <i_m_Source_File_Index>
270

> <chembl_id>
CHEMBL3675758

> <chembl_pref_name>
None

> <i_lp_mmshare_version>
53161

> <i_f3d_flags>
0

> <r_lp_tautomer_probability>
1

> <s_lp_Force_Field>
OPLS_2005

> <r_lp_Energy>
21.425743

> <b_lp_Chiralities_Consistent>
1

> <s_lp_Variant>
CHEMBL3192_lig855-1

> <s_i_glide_gridfile>
glide-grid_3f07

> <i_i_glide_lignum>
913

> <i_i_glide_rotatable_bonds>
11

> <r_i_docking_score>
-7.34141785094832

> <r_i_glide_ligand_efficiency>
-0.271904364849938

> <r_i_glide_ligand_efficiency_sa>
-0.815713093653661

> <r_i_glide_ligand_efficiency_ln>
-1.70896104296827

> <r_i_glide_gscore>
-7.34141785094832

> <r_i_glide_lipo>
-1.00602078687262

> <r_i_glide_hbond>
-0.304

> <r_i_glide_metal>
-2.3

> <r_i_glide_rewards>
-0.983645923249422

> <r_i_glide_evdw>
-27.673023223877

> <r_i_glide_ecoul>
-17.9294204711914

> <r_i_glide_erotb>
1.44746676575931

> <r_i_glide_esite>
-0.122153674713022

> <r_i_glide_emodel>
-68.9923076868342

> <r_i_glide_energy>
-45.6024436950684

> <r_i_glide_einternal>
5.15899324417114

> <i_i_glide_confnum>
10

> <i_i_glide_posenum>
340

> <r_i_glide_eff_state_penalty>
0

> <s_user_duplicate_titles>
CHEMBL3192_lig855

> <s_m_subgroup_title>
dock_pv

> <s_m_subgroupid>
dock_pv

> <b_m_subgroup_collapsed>
1

$$$$
CHEMBL3192_lig491
                    3D
 Schrodinger Suite 2021-1.
 31 32  0  0  1  0            999 V2000
  -23.5820   31.8900  -40.3810 C   0  0  0  0  0  0
  -22.3387   31.3928  -39.9810 C   0  0  0  0  0  0
  -21.1723   32.0890  -40.2851 C   0  0  0  0  0  0
  -21.2486   33.2874  -40.9896 C   0  0  0  0  0  0
  -22.4810   33.7951  -41.3927 C   0  0  0  0  0  0
  -23.6493   33.0993  -41.0919 C   0  0  0  0  0  0
  -28.1853   30.0723  -40.3422 C   0  0  0  0  0  0
  -26.9229   30.2051  -39.7600 C   0  0  0  0  0  0
  -26.5364   29.2801  -38.7808 C   0  0  0  0  0  0
  -27.3747   28.2277  -38.4190 C   0  0  0  0  0  0
  -28.6130   28.0690  -39.0348 C   0  0  0  0  0  0
  -29.0130   29.0180  -39.9810 C   0  0  0  0  0  0
  -29.5087   26.8933  -38.7219 C   0  0  0  0  0  0
  -29.5420   26.4690  -37.4543 N   0  0  0  0  0  0
  -30.2856   26.4690  -39.5810 O   0  0  0  0  0  0
  -30.3357   25.3476  -37.1486 O   0  0  0  0  0  0
  -26.0141   31.3302  -40.2015 C   0  0  0  0  0  0
  -24.6928   31.1019  -40.0305 N   0  0  0  0  0  0
  -26.5012   32.3390  -40.7155 O   0  0  0  0  0  0
  -22.2658   30.4690  -39.4258 H   0  0  0  0  0  0
  -20.2136   31.7061  -39.9679 H   0  0  0  0  0  0
  -20.3446   33.8319  -41.2191 H   0  0  0  0  0  0
  -22.5323   34.7291  -41.9323 H   0  0  0  0  0  0
  -24.5846   33.5247  -41.4165 H   0  0  0  0  0  0
  -28.5235   30.7680  -41.0979 H   0  0  0  0  0  0
  -25.5745   29.3524  -38.2947 H   0  0  0  0  0  0
  -27.0280   27.5179  -37.6817 H   0  0  0  0  0  0
  -29.9709   28.9394  -40.4730 H   0  0  0  0  0  0
  -28.9940   26.8073  -36.6683 H   0  0  0  0  0  0
  -29.7014   24.6250  -37.0740 H   0  0  0  0  0  0
  -24.4533   30.2301  -39.5871 H   0  0  0  0  0  0
  1  2  2  0  0  0
  1  6  1  0  0  0
  1 18  1  0  0  0
  2  3  1  0  0  0
  2 20  1  0  0  0
  3  4  2  0  0  0
  3 21  1  0  0  0
  4  5  1  0  0  0
  4 22  1  0  0  0
  5  6  2  0  0  0
  5 23  1  0  0  0
  6 24  1  0  0  0
  7  8  2  0  0  0
  7 12  1  0  0  0
  7 25  1  0  0  0
  8  9  1  0  0  0
  8 17  1  0  0  0
  9 10  2  0  0  0
  9 26  1  0  0  0
 10 11  1  0  0  0
 10 27  1  0  0  0
 11 12  2  0  0  0
 11 13  1  0  0  0
 12 28  1  0  0  0
 13 14  1  0  0  0
 13 15  2  0  0  0
 14 16  1  0  0  0
 14 29  1  0  0  0
 16 30  1  0  0  0
 17 18  1  0  0  0
 17 19  2  0  0  0
 18 31  1  0  0  0
M  END
> <s_m_entry_id>
53052

> <s_m_entry_name>
dock_pv.271

> <s_m_Source_Path>
/home/csk/Desktop/cluster/DUD-E-result/hdac8

> <s_m_Source_File>
dock_pv.maegz

> <i_m_Source_File_Index>
271

> <chembl_id>
CHEMBL2333342

> <chembl_pref_name>
None

> <i_lp_mmshare_version>
53161

> <i_f3d_flags>
0

> <r_lp_tautomer_probability>
1

> <s_lp_Force_Field>
OPLS_2005

> <r_lp_Energy>
31.087516

> <b_lp_Chiralities_Consistent>
1

> <s_lp_Variant>
CHEMBL3192_lig491-1

> <s_i_glide_gridfile>
glide-grid_3f07

> <i_i_glide_lignum>
512

> <i_i_glide_rotatable_bonds>
6

> <r_i_docking_score>
-7.33913092231014

> <r_i_glide_ligand_efficiency>
-0.386270048542639

> <r_i_glide_ligand_efficiency_sa>
-1.03072363337145

> <r_i_glide_ligand_efficiency_ln>
-1.86062731888454

> <r_i_glide_gscore>
-7.33913092231014

> <r_i_glide_lipo>
-0.823650523943452

> <r_i_glide_hbond>
-0.608

> <r_i_glide_metal>
-2.3

> <r_i_glide_rewards>
-1.89748202613129

> <r_i_glide_evdw>
-18.2507934570312

> <r_i_glide_ecoul>
-12.8618383407593

> <r_i_glide_erotb>
1.34183117323479

> <r_i_glide_esite>
-0.21001412150474

> <r_i_glide_emodel>
-48.7521859097569

> <r_i_glide_energy>
-31.1126317977905

> <r_i_glide_einternal>
2.48362994194031

> <i_i_glide_confnum>
9

> <i_i_glide_posenum>
120

> <r_i_glide_eff_state_penalty>
0

> <s_user_duplicate_titles>
CHEMBL3192_lig491

> <s_m_subgroup_title>
dock_pv

> <s_m_subgroupid>
dock_pv

> <b_m_subgroup_collapsed>
1

$$$$
CHEMBL3192_lig1084
                    3D
 Schrodinger Suite 2021-1.
 41 43  0  0  1  0            999 V2000
  -30.2131   25.4079  -37.3118 O   0  0  0  0  0  0
  -29.4130   26.5467  -37.5333 N   0  0  0  0  0  0
  -29.4130   27.1047  -38.7476 C   0  0  0  0  0  0
  -30.2471   26.7741  -39.5810 O   0  0  0  0  0  0
  -28.4230   28.2170  -39.0230 C   0  0  0  0  0  0
  -27.2115   28.2494  -38.3502 C   0  0  0  0  0  0
  -26.2838   29.2690  -38.5332 C   0  0  0  0  0  0
  -26.5175   30.2551  -39.4669 C   0  0  0  0  0  0
  -25.5128   31.2232  -39.6640 N   0  0  0  0  0  0
  -25.8093   32.3906  -40.4893 C   0  0  0  0  0  0
  -26.6849   31.9817  -41.6868 C   0  0  1  0  0  0
  -27.9967   31.3501  -41.1810 C   0  0  0  0  0  0
  -27.7295   30.2593  -40.1783 C   0  0  0  0  0  0
  -28.6687   29.2381  -39.9507 C   0  0  0  0  0  0
  -27.0130   33.2319  -42.4014 N   0  0  2  0  0  0
  -25.9696   33.7925  -43.6973 S   0  0  0  0  0  0
  -25.9368   35.2555  -43.6095 O   0  0  0  0  0  0
  -24.7345   33.0005  -43.6791 O   0  0  0  0  0  0
  -26.8538   33.3963  -45.1995 C   0  0  0  0  0  0
  -27.9882   34.1396  -45.5394 C   0  0  0  0  0  0
  -28.6651   33.8760  -46.7294 C   0  0  0  0  0  0
  -28.2130   32.8690  -47.5810 C   0  0  0  0  0  0
  -27.0885   32.1160  -47.2394 C   0  0  0  0  0  0
  -26.5345   30.8689  -48.2954 Cl  0  0  0  0  0  0
  -26.4079   32.3780  -46.0489 C   0  0  0  0  0  0
  -29.5814   24.6793  -37.2725 H   0  0  0  0  0  0
  -28.8371   26.8010  -36.7354 H   0  0  0  0  0  0
  -27.0021   27.4813  -37.6219 H   0  0  0  0  0  0
  -25.3551   29.2577  -37.9810 H   0  0  0  0  0  0
  -24.8522   31.4099  -38.9208 H   0  0  0  0  0  0
  -26.3086   33.1340  -39.8649 H   0  0  0  0  0  0
  -24.8710   32.8468  -40.8090 H   0  0  0  0  0  0
  -26.1418   31.2852  -42.3293 H   0  0  0  0  0  0
  -28.5461   30.8690  -41.9810 H   0  0  0  0  0  0
  -28.6398   32.0987  -40.7199 H   0  0  0  0  0  0
  -29.5998   29.2538  -40.5001 H   0  0  0  0  0  0
  -27.4031   33.9789  -41.8229 H   0  0  0  0  0  0
  -28.3356   34.9315  -44.8910 H   0  0  0  0  0  0
  -29.5407   34.4512  -46.9955 H   0  0  0  0  0  0
  -28.7421   32.6649  -48.5010 H   0  0  0  0  0  0
  -25.5307   31.7994  -45.7968 H   0  0  0  0  0  0
  1  2  1  0  0  0
  1 26  1  0  0  0
  2  3  1  0  0  0
  2 27  1  0  0  0
  3  4  2  0  0  0
  3  5  1  0  0  0
  5  6  2  0  0  0
  5 14  1  0  0  0
  6  7  1  0  0  0
  6 28  1  0  0  0
  7  8  2  0  0  0
  7 29  1  0  0  0
  8  9  1  0  0  0
  8 13  1  0  0  0
  9 10  1  0  0  0
  9 30  1  0  0  0
 10 11  1  0  0  0
 10 31  1  0  0  0
 10 32  1  0  0  0
 11 12  1  0  0  0
 11 15  1  0  0  0
 11 33  1  0  0  0
 12 13  1  0  0  0
 12 34  1  0  0  0
 12 35  1  0  0  0
 13 14  2  0  0  0
 14 36  1  0  0  0
 15 16  1  0  0  0
 15 37  1  0  0  0
 16 17  2  0  0  0
 16 18  2  0  0  0
 16 19  1  0  0  0
 19 20  2  0  0  0
 19 25  1  0  0  0
 20 21  1  0  0  0
 20 38  1  0  0  0
 21 22  2  0  0  0
 21 39  1  0  0  0
 22 23  1  0  0  0
 22 40  1  0  0  0
 23 24  1  0  0  0
 23 25  2  0  0  0
 25 41  1  0  0  0
M  END
> <s_m_entry_id>
53053

> <s_m_entry_name>
dock_pv.272

> <s_m_Source_Path>
/home/csk/Desktop/cluster/DUD-E-result/hdac8

> <s_m_Source_File>
dock_pv.maegz

> <i_m_Source_File_Index>
272

> <chembl_id>
CHEMBL3694329

> <chembl_pref_name>
None

> <i_lp_mmshare_version>
53161

> <i_f3d_flags>
0

> <r_lp_tautomer_probability>
1

> <s_lp_Force_Field>
OPLS_2005

> <r_lp_Energy>
25.370087

> <b_lp_Chiralities_Consistent>
1

> <s_lp_Variant>
CHEMBL3192_lig1084-2

> <s_i_glide_gridfile>
glide-grid_3f07

> <i_i_glide_lignum>
1208

> <i_i_glide_rotatable_bonds>
6

> <r_i_docking_score>
-7.33725004668041

> <r_i_glide_ligand_efficiency>
-0.293490001867216

> <r_i_glide_ligand_efficiency_sa>
-0.858169970527087

> <r_i_glide_ligand_efficiency_ln>
-1.73914814070396

> <r_i_glide_gscore>
-7.33725004668041

> <r_i_glide_lipo>
-1.27024705478549

> <r_i_glide_hbond>
-0.607236720041287

> <r_i_glide_metal>
-2.11896690892709

> <r_i_glide_rewards>
-0.77098587070698

> <r_i_glide_evdw>
-19.9025535583496

> <r_i_glide_ecoul>
-13.3975019454956

> <r_i_glide_erotb>
0.665829058045677

> <r_i_glide_esite>
-0.230889580523414

> <r_i_glide_emodel>
-49.7293251094564

> <r_i_glide_energy>
-33.3000555038452

> <r_i_glide_einternal>
3.86846232414246

> <i_i_glide_confnum>
10

> <i_i_glide_posenum>
48

> <r_i_glide_eff_state_penalty>
0

> <s_user_duplicate_titles>
CHEMBL3192_lig1084

> <s_m_subgroup_title>
dock_pv

> <s_m_subgroupid>
dock_pv

> <b_m_subgroup_collapsed>
1

$$$$
CHEMBL3192_lig1037
                    3D
 Schrodinger Suite 2021-1.
 47 50  0  0  1  0            999 V2000
  -30.2354   25.4895  -37.3028 O   0  0  0  0  0  0
  -29.4212   26.6177  -37.5252 N   0  0  0  0  0  0
  -29.4133   27.1728  -38.7402 C   0  0  0  0  0  0
  -30.2404   26.8443  -39.5810 O   0  0  0  0  0  0
  -28.4032   28.2681  -39.0160 C   0  0  0  0  0  0
  -27.1822   28.2793  -38.3618 C   0  0  0  0  0  0
  -26.2313   29.2691  -38.5876 C   0  0  0  0  0  0
  -26.4437   30.2694  -39.5202 C   0  0  0  0  0  0
  -25.3260   31.2592  -39.8436 C   0  0  0  0  0  0
  -25.8710   32.5852  -40.3811 C   0  0  0  0  0  0
  -26.8254   32.3396  -41.5501 C   0  0  1  0  0  0
  -28.0142   31.4240  -41.1369 C   0  0  0  0  0  0
  -27.6838   30.3000  -40.1814 C   0  0  0  0  0  0
  -28.6400   29.2966  -39.9338 C   0  0  0  0  0  0
  -27.3282   33.6509  -41.9746 N   0  0  0  0  0  0
  -27.5703   34.0124  -43.3065 C   0  0  0  0  0  0
  -28.3432   35.1154  -43.4687 N   0  0  0  0  0  0
  -28.6686   35.4485  -44.7429 C   0  0  0  0  0  0
  -28.2358   34.7077  -45.8429 C   0  0  0  0  0  0
  -27.4257   33.5902  -45.5933 C   0  0  0  0  0  0
  -27.0916   33.2387  -44.3181 N   0  0  0  0  0  0
  -26.8583   32.7536  -46.6946 C   0  0  0  0  0  0
  -27.5457   32.6093  -47.9088 C   0  0  0  0  0  0
  -27.0120   31.8471  -48.9447 C   0  0  0  0  0  0
  -25.7815   31.2221  -48.7781 C   0  0  0  0  0  0
  -25.2677   30.4695  -49.7773 F   0  0  0  0  0  0
  -25.0817   31.3531  -47.5834 C   0  0  0  0  0  0
  -25.6209   32.1081  -46.5458 C   0  0  0  0  0  0
  -29.6122   24.7545  -37.2503 H   0  0  0  0  0  0
  -28.8343   26.8561  -36.7301 H   0  0  0  0  0  0
  -26.9758   27.5101  -37.6340 H   0  0  0  0  0  0
  -25.2895   29.2315  -38.0589 H   0  0  0  0  0  0
  -24.7070   31.4465  -38.9636 H   0  0  0  0  0  0
  -24.6700   30.8083  -40.5898 H   0  0  0  0  0  0
  -26.3804   33.1217  -39.5794 H   0  0  0  0  0  0
  -25.0384   33.2216  -40.6871 H   0  0  0  0  0  0
  -26.2805   31.8590  -42.3650 H   0  0  0  0  0  0
  -28.4212   30.8832  -41.9807 H   0  0  0  0  0  0
  -28.8207   32.0095  -40.6964 H   0  0  0  0  0  0
  -29.5847   29.3353  -40.4583 H   0  0  0  0  0  0
  -27.7164   34.2522  -41.2649 H   0  0  0  0  0  0
  -29.2819   36.3287  -44.8728 H   0  0  0  0  0  0
  -28.4987   35.0117  -46.8448 H   0  0  0  0  0  0
  -28.5105   33.0737  -48.0549 H   0  0  0  0  0  0
  -27.5579   31.7308  -49.8694 H   0  0  0  0  0  0
  -24.1232   30.8712  -47.4620 H   0  0  0  0  0  0
  -25.0601   32.2046  -45.6272 H   0  0  0  0  0  0
  1  2  1  0  0  0
  1 29  1  0  0  0
  2  3  1  0  0  0
  2 30  1  0  0  0
  3  4  2  0  0  0
  3  5  1  0  0  0
  5  6  2  0  0  0
  5 14  1  0  0  0
  6  7  1  0  0  0
  6 31  1  0  0  0
  7  8  2  0  0  0
  7 32  1  0  0  0
  8  9  1  0  0  0
  8 13  1  0  0  0
  9 10  1  0  0  0
  9 33  1  0  0  0
  9 34  1  0  0  0
 10 11  1  0  0  0
 10 35  1  0  0  0
 10 36  1  0  0  0
 11 12  1  0  0  0
 11 15  1  0  0  0
 11 37  1  0  0  0
 12 13  1  0  0  0
 12 38  1  0  0  0
 12 39  1  0  0  0
 13 14  2  0  0  0
 14 40  1  0  0  0
 15 16  1  0  0  0
 15 41  1  0  0  0
 16 17  2  0  0  0
 16 21  1  0  0  0
 17 18  1  0  0  0
 18 19  2  0  0  0
 18 42  1  0  0  0
 19 20  1  0  0  0
 19 43  1  0  0  0
 20 21  2  0  0  0
 20 22  1  0  0  0
 22 23  2  0  0  0
 22 28  1  0  0  0
 23 24  1  0  0  0
 23 44  1  0  0  0
 24 25  2  0  0  0
 24 45  1  0  0  0
 25 26  1  0  0  0
 25 27  1  0  0  0
 27 28  2  0  0  0
 27 46  1  0  0  0
 28 47  1  0  0  0
M  END
> <s_m_entry_id>
53054

> <s_m_entry_name>
dock_pv.273

> <s_m_Source_Path>
/home/csk/Desktop/cluster/DUD-E-result/hdac8

> <s_m_Source_File>
dock_pv.maegz

> <i_m_Source_File_Index>
273

> <chembl_id>
CHEMBL3694289

> <chembl_pref_name>
None

> <i_lp_mmshare_version>
53161

> <i_f3d_flags>
0

> <r_lp_tautomer_probability>
0.999999987636

> <s_lp_Force_Field>
OPLS_2005

> <r_lp_Energy>
22.13172

> <b_lp_Chiralities_Consistent>
1

> <s_lp_Variant>
CHEMBL3192_lig1037-2

> <s_i_glide_gridfile>
glide-grid_3f07

> <i_i_glide_lignum>
1114

> <i_i_glide_rotatable_bonds>
6

> <r_i_docking_score>
-7.33684449008869

> <r_i_glide_ligand_efficiency>
-0.26203016036031

> <r_i_glide_ligand_efficiency_sa>
-0.795677894365142

> <r_i_glide_ligand_efficiency_ln>
-1.69355912742724

> <r_i_glide_gscore>
-7.33684449008869

> <r_i_glide_lipo>
-1.08997258119434

> <r_i_glide_hbond>
-0.608

> <r_i_glide_metal>
-1.78511338642176

> <r_i_glide_rewards>
-1.06955046692251

> <r_i_glide_evdw>
-20.8005847930908

> <r_i_glide_ecoul>
-14.3849811553955

> <r_i_glide_erotb>
0.676697681103254

> <r_i_glide_esite>
-0.263129323689465

> <r_i_glide_emodel>
-49.9949574554979

> <r_i_glide_energy>
-35.1855659484863

> <r_i_glide_einternal>
2.921306848526

> <i_i_glide_confnum>
2

> <i_i_glide_posenum>
193

> <r_i_glide_eff_state_penalty>
0

> <s_user_duplicate_titles>
CHEMBL3192_lig1037

> <s_m_subgroup_title>
dock_pv

> <s_m_subgroupid>
dock_pv

> <b_m_subgroup_collapsed>
1

$$$$
CHEMBL3192_lig733
                    3D
 Schrodinger Suite 2021-1.
 43 44  0  0  1  0            999 V2000
  -26.8203   30.9080  -40.1142 C   0  0  0  0  0  0
  -28.0479   30.2516  -40.7889 C   0  0  0  0  0  0
  -28.8791   29.3590  -39.8443 C   0  0  0  0  0  0
  -28.0933   28.1745  -39.2469 C   0  0  0  0  0  0
  -28.8078   27.4512  -38.0884 C   0  0  0  0  0  0
  -29.8857   26.4333  -38.4497 C   0  0  0  0  0  0
  -30.1709   25.5299  -37.5004 N   0  0  0  0  0  0
  -30.4523   26.4691  -39.5466 O   0  0  0  0  0  0
  -31.0147   24.4691  -37.8334 O   0  0  0  0  0  0
  -26.2100   32.0851  -40.8967 C   0  0  0  0  0  0
  -25.6797   31.6897  -42.2564 C   0  0  0  0  0  0
  -26.2540   31.8597  -43.4146 N   0  0  0  0  0  0
  -25.3535   31.3655  -44.2477 C   0  0  0  0  0  0
  -24.2675   30.8679  -43.6888 N   0  0  0  0  0  0
  -24.4790   31.0695  -42.3272 O   0  0  0  0  0  0
  -25.5505   31.3843  -45.7356 C   0  0  0  0  0  0
  -26.8317   31.5323  -46.2805 C   0  0  0  0  0  0
  -27.0130   31.5536  -47.6602 C   0  0  0  0  0  0
  -25.9178   31.4276  -48.5191 C   0  0  0  0  0  0
  -24.6344   31.2944  -47.9792 C   0  0  0  0  0  0
  -24.4541   31.2694  -46.5996 C   0  0  0  0  0  0
  -26.1449   31.4285  -50.0303 C   0  0  0  0  0  0
  -26.6464   32.6033  -50.4096 F   0  0  0  0  0  0
  -25.0192   31.2085  -50.7130 F   0  0  0  0  0  0
  -27.0126   30.4692  -50.3530 F   0  0  0  0  0  0
  -27.1008   31.2686  -39.1248 H   0  0  0  0  0  0
  -26.0411   30.1617  -39.9458 H   0  0  0  0  0  0
  -27.7252   29.6716  -41.6544 H   0  0  0  0  0  0
  -28.7017   31.0310  -41.1802 H   0  0  0  0  0  0
  -29.7522   28.9872  -40.3813 H   0  0  0  0  0  0
  -29.2708   29.9807  -39.0366 H   0  0  0  0  0  0
  -27.1535   28.5451  -38.8361 H   0  0  0  0  0  0
  -27.8021   27.4665  -40.0223 H   0  0  0  0  0  0
  -29.2253   28.1717  -37.3852 H   0  0  0  0  0  0
  -28.0421   26.8713  -37.5811 H   0  0  0  0  0  0
  -29.7470   25.4338  -36.5862 H   0  0  0  0  0  0
  -30.4198   23.7046  -37.8812 H   0  0  0  0  0  0
  -26.9542   32.8742  -41.0010 H   0  0  0  0  0  0
  -25.4082   32.5318  -40.3053 H   0  0  0  0  0  0
  -27.6954   31.6304  -45.6377 H   0  0  0  0  0  0
  -28.0089   31.6684  -48.0609 H   0  0  0  0  0  0
  -23.7696   31.2055  -48.6216 H   0  0  0  0  0  0
  -23.4533   31.1683  -46.2047 H   0  0  0  0  0  0
  1  2  1  0  0  0
  1 10  1  0  0  0
  1 26  1  0  0  0
  1 27  1  0  0  0
  2  3  1  0  0  0
  2 28  1  0  0  0
  2 29  1  0  0  0
  3  4  1  0  0  0
  3 30  1  0  0  0
  3 31  1  0  0  0
  4  5  1  0  0  0
  4 32  1  0  0  0
  4 33  1  0  0  0
  5  6  1  0  0  0
  5 34  1  0  0  0
  5 35  1  0  0  0
  6  7  1  0  0  0
  6  8  2  0  0  0
  7  9  1  0  0  0
  7 36  1  0  0  0
  9 37  1  0  0  0
 10 11  1  0  0  0
 10 38  1  0  0  0
 10 39  1  0  0  0
 11 12  2  0  0  0
 11 15  1  0  0  0
 12 13  1  0  0  0
 13 14  2  0  0  0
 13 16  1  0  0  0
 14 15  1  0  0  0
 16 17  2  0  0  0
 16 21  1  0  0  0
 17 18  1  0  0  0
 17 40  1  0  0  0
 18 19  2  0  0  0
 18 41  1  0  0  0
 19 20  1  0  0  0
 19 22  1  0  0  0
 20 21  2  0  0  0
 20 42  1  0  0  0
 21 43  1  0  0  0
 22 23  1  0  0  0
 22 24  1  0  0  0
 22 25  1  0  0  0
M  END
> <s_m_entry_id>
53055

> <s_m_entry_name>
dock_pv.274

> <s_m_Source_Path>
/home/csk/Desktop/cluster/DUD-E-result/hdac8

> <s_m_Source_File>
dock_pv.maegz

> <i_m_Source_File_Index>
274

> <chembl_id>
CHEMBL3585961

> <chembl_pref_name>
None

> <i_lp_mmshare_version>
53161

> <i_f3d_flags>
0

> <r_lp_tautomer_probability>
1

> <s_lp_Force_Field>
OPLS_2005

> <r_lp_Energy>
17.240325

> <b_lp_Chiralities_Consistent>
1

> <s_lp_Variant>
CHEMBL3192_lig733-1

> <s_i_glide_gridfile>
glide-grid_3f07

> <i_i_glide_lignum>
784

> <i_i_glide_rotatable_bonds>
11

> <r_i_docking_score>
-7.33637523033025

> <r_i_glide_ligand_efficiency>
-0.29345500921321

> <r_i_glide_ligand_efficiency_sa>
-0.858067651386175

> <r_i_glide_ligand_efficiency_ln>
-1.73894078301284

> <r_i_glide_gscore>
-7.33637523033025

> <r_i_glide_lipo>
-0.877747767326436

> <r_i_glide_hbond>
-0.304

> <r_i_glide_metal>
-2.3

> <r_i_glide_rewards>
-1.10439722492272

> <r_i_glide_evdw>
-24.9467029571533

> <r_i_glide_ecoul>
-17.5141468048096

> <r_i_glide_erotb>
1.34931875363376

> <r_i_glide_esite>
-0.225091823135753

> <r_i_glide_emodel>
-65.9252616255169

> <r_i_glide_energy>
-42.4608497619629

> <r_i_glide_einternal>
3.31321501731873

> <i_i_glide_confnum>
52

> <i_i_glide_posenum>
148

> <r_i_glide_eff_state_penalty>
0

> <s_user_duplicate_titles>
CHEMBL3192_lig733

> <s_m_subgroup_title>
dock_pv

> <s_m_subgroupid>
dock_pv

> <b_m_subgroup_collapsed>
1

$$$$
CHEMBL3192_lig822
                    3D
 Schrodinger Suite 2021-1.
 53 55  0  0  1  0            999 V2000
  -23.4685   31.1380  -46.2499 C   0  0  0  0  0  0
  -23.8115   30.4005  -45.0822 O   0  0  0  0  0  0
  -23.8416   31.1716  -43.8866 C   0  0  0  0  0  0
  -25.1548   31.9676  -43.7459 C   0  0  0  0  0  0
  -25.2632   32.8069  -42.4512 C   0  0  0  0  0  0
  -25.1170   31.9779  -41.2523 N   0  0  0  0  0  0
  -24.0498   31.9366  -40.3643 C   0  0  0  0  0  0
  -22.8628   32.8985  -40.4271 C   0  0  0  0  0  0
  -21.5822   32.4688  -39.6595 C   0  0  0  0  0  0
  -20.6121   31.4987  -40.3396 C   0  0  0  0  0  0
  -20.6145   31.2705  -41.7213 C   0  0  0  0  0  0
  -19.6832   30.4082  -42.2941 C   0  0  0  0  0  0
  -18.7381   29.7790  -41.4882 C   0  0  0  0  0  0
  -18.7123   30.0118  -40.1154 C   0  0  0  0  0  0
  -19.6499   30.8688  -39.5438 C   0  0  0  0  0  0
  -24.2251   31.0611  -39.4015 N   0  0  0  0  0  0
  -25.4670   30.5346  -39.6181 C   0  0  0  0  0  0
  -26.1673   29.5844  -38.8642 C   0  0  0  0  0  0
  -27.4165   29.1416  -39.3116 C   0  0  0  0  0  0
  -28.1002   28.0733  -38.5464 C   0  0  0  0  0  0
  -29.2111   27.4121  -38.9434 C   0  0  0  0  0  0
  -29.9097   26.3975  -38.1881 C   0  0  0  0  0  0
  -30.6130   25.5773  -38.7810 O   0  0  0  0  0  0
  -29.8222   26.4690  -36.8497 N   0  0  0  0  0  0
  -30.6130   25.5937  -36.0861 O   0  0  0  0  0  0
  -27.9726   29.7037  -40.4709 C   0  0  0  0  0  0
  -27.3167   30.6758  -41.2280 C   0  0  0  0  0  0
  -26.0512   31.0721  -40.7850 C   0  0  0  0  0  0
  -23.4276   30.4694  -47.1086 H   0  0  0  0  0  0
  -24.1999   31.9142  -46.4750 H   0  0  0  0  0  0
  -22.4852   31.6007  -46.1516 H   0  0  0  0  0  0
  -22.9769   31.8335  -43.8297 H   0  0  0  0  0  0
  -23.7500   30.4692  -43.0580 H   0  0  0  0  0  0
  -25.9940   31.2743  -43.8091 H   0  0  0  0  0  0
  -25.2665   32.6415  -44.5946 H   0  0  0  0  0  0
  -26.2312   33.3072  -42.3971 H   0  0  0  0  0  0
  -24.5123   33.5958  -42.4419 H   0  0  0  0  0  0
  -22.6009   33.1766  -41.4446 H   0  0  0  0  0  0
  -23.2001   33.8359  -39.9814 H   0  0  0  0  0  0
  -21.0045   33.3680  -39.4399 H   0  0  0  0  0  0
  -21.8606   32.0690  -38.6834 H   0  0  0  0  0  0
  -21.3216   31.7568  -42.3693 H   0  0  0  0  0  0
  -19.6910   30.2329  -43.3601 H   0  0  0  0  0  0
  -18.0144   29.1111  -41.9322 H   0  0  0  0  0  0
  -17.9720   29.5270  -39.4958 H   0  0  0  0  0  0
  -19.6241   31.0480  -38.4784 H   0  0  0  0  0  0
  -25.7112   29.1645  -37.9816 H   0  0  0  0  0  0
  -27.6532   27.8305  -37.5924 H   0  0  0  0  0  0
  -29.6475   27.6125  -39.9079 H   0  0  0  0  0  0
  -29.2577   27.1056  -36.2885 H   0  0  0  0  0  0
  -31.2676   26.1680  -35.6785 H   0  0  0  0  0  0
  -28.9443   29.3893  -40.8180 H   0  0  0  0  0  0
  -27.7661   31.0877  -42.1187 H   0  0  0  0  0  0
  1  2  1  0  0  0
  1 29  1  0  0  0
  1 30  1  0  0  0
  1 31  1  0  0  0
  2  3  1  0  0  0
  3  4  1  0  0  0
  3 32  1  0  0  0
  3 33  1  0  0  0
  4  5  1  0  0  0
  4 34  1  0  0  0
  4 35  1  0  0  0
  5  6  1  0  0  0
  5 36  1  0  0  0
  5 37  1  0  0  0
  6  7  1  0  0  0
  6 28  1  0  0  0
  7  8  1  0  0  0
  7 16  2  0  0  0
  8  9  1  0  0  0
  8 38  1  0  0  0
  8 39  1  0  0  0
  9 10  1  0  0  0
  9 40  1  0  0  0
  9 41  1  0  0  0
 10 11  2  0  0  0
 10 15  1  0  0  0
 11 12  1  0  0  0
 11 42  1  0  0  0
 12 13  2  0  0  0
 12 43  1  0  0  0
 13 14  1  0  0  0
 13 44  1  0  0  0
 14 15  2  0  0  0
 14 45  1  0  0  0
 15 46  1  0  0  0
 16 17  1  0  0  0
 17 18  2  0  0  0
 17 28  1  0  0  0
 18 19  1  0  0  0
 18 47  1  0  0  0
 19 20  1  0  0  0
 19 26  2  0  0  0
 20 21  2  0  0  0
 20 48  1  0  0  0
 21 22  1  0  0  0
 21 49  1  0  0  0
 22 23  2  0  0  0
 22 24  1  0  0  0
 24 25  1  0  0  0
 24 50  1  0  0  0
 25 51  1  0  0  0
 26 27  1  0  0  0
 26 52  1  0  0  0
 27 28  2  0  0  0
 27 53  1  0  0  0
M  END
> <s_m_entry_id>
53056

> <s_m_entry_name>
dock_pv.275

> <s_m_Source_Path>
/home/csk/Desktop/cluster/DUD-E-result/hdac8

> <s_m_Source_File>
dock_pv.maegz

> <i_m_Source_File_Index>
275

> <chembl_id>
CHEMBL521909

> <chembl_pref_name>
None

> <i_lp_mmshare_version>
53161

> <i_f3d_flags>
0

> <r_lp_tautomer_probability>
1

> <s_lp_Force_Field>
OPLS_2005

> <r_lp_Energy>
25.190284

> <b_lp_Chiralities_Consistent>
1

> <s_lp_Variant>
CHEMBL3192_lig822-1

> <s_i_glide_gridfile>
glide-grid_3f07

> <i_i_glide_lignum>
877

> <i_i_glide_rotatable_bonds>
11

> <r_i_docking_score>
-7.33458482928394

> <r_i_glide_ligand_efficiency>
-0.261949458188712

> <r_i_glide_ligand_efficiency_sa>
-0.795432835041133

> <r_i_glide_ligand_efficiency_ln>
-1.69303753136698

> <r_i_glide_gscore>
-7.33458482928394

> <r_i_glide_lipo>
-1.09615307965797

> <r_i_glide_hbond>
-0.32

> <r_i_glide_metal>
-2.3

> <r_i_glide_rewards>
-1.08023428464431

> <r_i_glide_evdw>
-34.7864875793457

> <r_i_glide_ecoul>
-12.0747547149658

> <r_i_glide_erotb>
1.21200999945722

> <r_i_glide_esite>
-0.199669878226715

> <r_i_glide_emodel>
-68.2776145861407

> <r_i_glide_energy>
-46.8612422943115

> <r_i_glide_einternal>
8.21815490722656

> <i_i_glide_confnum>
5

> <i_i_glide_posenum>
8

> <r_i_glide_eff_state_penalty>
0

> <s_user_duplicate_titles>
CHEMBL3192_lig822

> <s_m_subgroup_title>
dock_pv

> <s_m_subgroupid>
dock_pv

> <b_m_subgroup_collapsed>
1

$$$$
CHEMBL3192_lig443
                    3D
 Schrodinger Suite 2021-1.
 39 40  0  0  1  0            999 V2000
  -23.4155   31.0909  -45.7894 C   0  0  0  0  0  0
  -24.2237   31.7569  -44.6928 C   0  0  0  0  0  0
  -23.5653   32.5297  -43.7359 C   0  0  0  0  0  0
  -24.2926   33.1523  -42.7267 C   0  0  0  0  0  0
  -25.6800   33.0047  -42.6787 C   0  0  0  0  0  0
  -26.3412   32.2227  -43.6279 C   0  0  0  0  0  0
  -25.6111   31.5989  -44.6373 C   0  0  0  0  0  0
  -26.5854   33.7819  -41.3463 S   0  0  0  0  0  0
  -28.0138   33.8304  -41.6789 O   0  0  0  0  0  0
  -25.8648   35.0081  -40.9919 O   0  0  0  0  0  0
  -26.3677   32.6783  -39.9810 N   0  0  0  0  0  0
  -26.9310   31.3985  -39.8429 C   0  0  0  0  0  0
  -28.0975   31.0025  -40.5024 C   0  0  0  0  0  0
  -28.6541   29.7524  -40.2625 C   0  0  0  0  0  0
  -28.0663   28.8911  -39.3378 C   0  0  0  0  0  0
  -28.6983   27.5931  -39.0897 C   0  0  0  0  0  0
  -29.4130   27.2967  -37.9847 C   0  0  0  0  0  0
  -30.1349   26.0541  -37.8330 C   0  0  0  0  0  0
  -30.3439   25.2929  -38.7810 O   0  0  0  0  0  0
  -30.6129   25.8421  -36.5973 N   0  0  0  0  0  0
  -31.3718   24.6806  -36.3810 O   0  0  0  0  0  0
  -26.8917   29.2690  -38.6899 C   0  0  0  0  0  0
  -26.3250   30.5171  -38.9436 C   0  0  0  0  0  0
  -22.9205   31.8448  -46.4023 H   0  0  0  0  0  0
  -22.6348   30.4690  -45.3507 H   0  0  0  0  0  0
  -24.0332   30.4690  -46.4365 H   0  0  0  0  0  0
  -22.4919   32.6493  -43.7725 H   0  0  0  0  0  0
  -23.7777   33.7454  -41.9835 H   0  0  0  0  0  0
  -27.4130   32.0958  -43.5871 H   0  0  0  0  0  0
  -26.1257   30.9984  -45.3733 H   0  0  0  0  0  0
  -25.6178   32.9338  -39.3467 H   0  0  0  0  0  0
  -28.6130   31.6528  -41.1810 H   0  0  0  0  0  0
  -29.5624   29.4732  -40.7770 H   0  0  0  0  0  0
  -28.5696   26.8690  -39.8769 H   0  0  0  0  0  0
  -29.4944   28.0148  -37.1810 H   0  0  0  0  0  0
  -30.4574   26.3896  -35.7611 H   0  0  0  0  0  0
  -30.7578   24.0832  -35.9451 H   0  0  0  0  0  0
  -26.4242   28.6019  -37.9810 H   0  0  0  0  0  0
  -25.4260   30.8075  -38.4178 H   0  0  0  0  0  0
  1  2  1  0  0  0
  1 24  1  0  0  0
  1 25  1  0  0  0
  1 26  1  0  0  0
  2  3  2  0  0  0
  2  7  1  0  0  0
  3  4  1  0  0  0
  3 27  1  0  0  0
  4  5  2  0  0  0
  4 28  1  0  0  0
  5  6  1  0  0  0
  5  8  1  0  0  0
  6  7  2  0  0  0
  6 29  1  0  0  0
  7 30  1  0  0  0
  8  9  2  0  0  0
  8 10  2  0  0  0
  8 11  1  0  0  0
 11 12  1  0  0  0
 11 31  1  0  0  0
 12 13  2  0  0  0
 12 23  1  0  0  0
 13 14  1  0  0  0
 13 32  1  0  0  0
 14 15  2  0  0  0
 14 33  1  0  0  0
 15 16  1  0  0  0
 15 22  1  0  0  0
 16 17  2  0  0  0
 16 34  1  0  0  0
 17 18  1  0  0  0
 17 35  1  0  0  0
 18 19  2  0  0  0
 18 20  1  0  0  0
 20 21  1  0  0  0
 20 36  1  0  0  0
 21 37  1  0  0  0
 22 23  2  0  0  0
 22 38  1  0  0  0
 23 39  1  0  0  0
M  END
> <s_m_entry_id>
53057

> <s_m_entry_name>
dock_pv.276

> <s_m_Source_Path>
/home/csk/Desktop/cluster/DUD-E-result/hdac8

> <s_m_Source_File>
dock_pv.maegz

> <i_m_Source_File_Index>
276

> <chembl_id>
CHEMBL317570

> <chembl_pref_name>
None

> <i_lp_mmshare_version>
53161

> <i_f3d_flags>
0

> <r_lp_tautomer_probability>
1

> <s_lp_Force_Field>
OPLS_2005

> <r_lp_Energy>
17.29271

> <b_lp_Chiralities_Consistent>
1

> <s_lp_Variant>
CHEMBL3192_lig443-1

> <s_i_glide_gridfile>
glide-grid_3f07

> <i_i_glide_lignum>
462

> <i_i_glide_rotatable_bonds>
7

> <r_i_docking_score>
-7.32914157990661

> <r_i_glide_ligand_efficiency>
-0.318658329561157

> <r_i_glide_ligand_efficiency_sa>
-0.906221900346481

> <r_i_glide_ligand_efficiency_ln>
-1.772252891003

> <r_i_glide_gscore>
-7.32914157990661

> <r_i_glide_lipo>
-1.11321696096134

> <r_i_glide_hbond>
-0.133020480241681

> <r_i_glide_metal>
-2.3

> <r_i_glide_rewards>
-1.37528791256332

> <r_i_glide_evdw>
-34.8960342407227

> <r_i_glide_ecoul>
-9.45451068878174

> <r_i_glide_erotb>
1.02288746066312

> <r_i_glide_esite>
-0.267525371449992

> <r_i_glide_emodel>
-65.1477547048577

> <r_i_glide_energy>
-44.3505449295044

> <r_i_glide_einternal>
6.36265659332275

> <i_i_glide_confnum>
62

> <i_i_glide_posenum>
395

> <r_i_glide_eff_state_penalty>
0

> <s_user_duplicate_titles>
CHEMBL3192_lig443

> <s_m_subgroup_title>
dock_pv

> <s_m_subgroupid>
dock_pv

> <b_m_subgroup_collapsed>
1

$$$$
CHEMBL3192_lig626
                    3D
 Schrodinger Suite 2021-1.
 48 49  0  0  1  0            999 V2000
  -30.0165   26.2871  -38.1193 C   0  0  0  0  0  0
  -29.0142   27.4538  -38.0271 C   0  0  0  0  0  0
  -28.7126   28.1559  -39.3746 C   0  0  0  0  0  0
  -28.0358   29.5313  -39.2335 C   0  0  0  0  0  0
  -26.5009   29.4640  -39.1179 C   0  0  0  0  0  0
  -25.8185   30.8260  -38.8619 C   0  0  0  0  0  0
  -26.0233   31.9076  -39.9468 C   0  0  0  0  0  0
  -30.6127   26.0690  -39.1810 O   0  0  0  0  0  0
  -30.2131   25.5628  -37.0055 N   0  0  0  0  0  0
  -31.0926   24.4692  -37.0734 O   0  0  0  0  0  0
  -25.3565   31.6407  -41.2232 N   0  0  0  0  0  0
  -25.9058   31.0270  -42.2869 C   0  0  0  0  0  0
  -22.9714   31.2611  -47.1685 N   0  0  0  0  0  0
  -23.6321   31.2698  -48.3604 C   0  0  0  0  0  0
  -25.0222   31.2916  -48.4462 C   0  0  0  0  0  0
  -25.7813   31.2697  -47.2780 C   0  0  0  0  0  0
  -25.1215   31.2185  -46.0242 C   0  0  0  0  0  0
  -25.8179   31.1420  -44.7949 C   0  0  0  0  0  0
  -25.1254   31.0991  -43.5778 C   0  0  0  0  0  0
  -23.7243   31.1297  -43.5858 C   0  0  0  0  0  0
  -23.0109   31.1910  -44.7814 C   0  0  0  0  0  0
  -23.6957   31.2317  -46.0166 C   0  0  0  0  0  0
  -22.9053   31.2239  -49.5362 O   0  0  0  0  0  0
  -21.4821   31.1136  -49.4799 C   0  0  0  0  0  0
  -27.0125   30.4897  -42.2575 O   0  0  0  0  0  0
  -29.4260   28.1781  -37.3245 H   0  0  0  0  0  0
  -28.0802   27.1085  -37.5907 H   0  0  0  0  0  0
  -28.0853   27.5016  -39.9809 H   0  0  0  0  0  0
  -29.6306   28.3080  -39.9441 H   0  0  0  0  0  0
  -28.3029   30.1283  -40.1049 H   0  0  0  0  0  0
  -28.4511   30.0637  -38.3816 H   0  0  0  0  0  0
  -26.2312   28.7859  -38.3082 H   0  0  0  0  0  0
  -26.0927   29.0191  -40.0249 H   0  0  0  0  0  0
  -26.1829   31.2202  -37.9123 H   0  0  0  0  0  0
  -24.7483   30.6694  -38.7167 H   0  0  0  0  0  0
  -27.0895   32.0594  -40.1185 H   0  0  0  0  0  0
  -25.6612   32.8677  -39.5809 H   0  0  0  0  0  0
  -29.7613   25.6613  -36.1066 H   0  0  0  0  0  0
  -30.5067   23.7093  -37.1801 H   0  0  0  0  0  0
  -24.4447   32.0582  -41.3335 H   0  0  0  0  0  0
  -25.5056   31.3122  -49.4111 H   0  0  0  0  0  0
  -26.8615   31.2681  -47.3213 H   0  0  0  0  0  0
  -26.8996   31.1254  -44.8133 H   0  0  0  0  0  0
  -23.1682   31.0926  -42.6584 H   0  0  0  0  0  0
  -21.9281   31.1995  -44.7731 H   0  0  0  0  0  0
  -21.0784   31.0814  -50.4919 H   0  0  0  0  0  0
  -21.0333   31.9686  -48.9718 H   0  0  0  0  0  0
  -21.1708   30.1984  -48.9716 H   0  0  0  0  0  0
  1  2  1  0  0  0
  1  8  2  0  0  0
  1  9  1  0  0  0
  2  3  1  0  0  0
  2 26  1  0  0  0
  2 27  1  0  0  0
  3  4  1  0  0  0
  3 28  1  0  0  0
  3 29  1  0  0  0
  4  5  1  0  0  0
  4 30  1  0  0  0
  4 31  1  0  0  0
  5  6  1  0  0  0
  5 32  1  0  0  0
  5 33  1  0  0  0
  6  7  1  0  0  0
  6 34  1  0  0  0
  6 35  1  0  0  0
  7 11  1  0  0  0
  7 36  1  0  0  0
  7 37  1  0  0  0
  9 10  1  0  0  0
  9 38  1  0  0  0
 10 39  1  0  0  0
 11 12  1  0  0  0
 11 40  1  0  0  0
 12 19  1  0  0  0
 12 25  2  0  0  0
 13 14  2  0  0  0
 13 22  1  0  0  0
 14 15  1  0  0  0
 14 23  1  0  0  0
 15 16  2  0  0  0
 15 41  1  0  0  0
 16 17  1  0  0  0
 16 42  1  0  0  0
 17 18  1  0  0  0
 17 22  2  0  0  0
 18 19  2  0  0  0
 18 43  1  0  0  0
 19 20  1  0  0  0
 20 21  2  0  0  0
 20 44  1  0  0  0
 21 22  1  0  0  0
 21 45  1  0  0  0
 23 24  1  0  0  0
 24 46  1  0  0  0
 24 47  1  0  0  0
 24 48  1  0  0  0
M  END
> <s_m_entry_id>
53058

> <s_m_entry_name>
dock_pv.277

> <s_m_Source_Path>
/home/csk/Desktop/cluster/DUD-E-result/hdac8

> <s_m_Source_File>
dock_pv.maegz

> <i_m_Source_File_Index>
277

> <chembl_id>
CHEMBL3309288

> <chembl_pref_name>
None

> <i_lp_mmshare_version>
53161

> <i_f3d_flags>
0

> <r_lp_tautomer_probability>
1

> <s_lp_Force_Field>
OPLS_2005

> <r_lp_Energy>
17.421043

> <b_lp_Chiralities_Consistent>
1

> <s_lp_Variant>
CHEMBL3192_lig626-1

> <s_i_glide_gridfile>
glide-grid_3f07

> <i_i_glide_lignum>
652

> <i_i_glide_rotatable_bonds>
12

> <r_i_docking_score>
-7.32808237882808

> <r_i_glide_ligand_efficiency>
-0.293123295153123

> <r_i_glide_ligand_efficiency_sa>
-0.857097713591507

> <r_i_glide_ligand_efficiency_ln>
-1.73697512869012

> <r_i_glide_gscore>
-7.32808237882808

> <r_i_glide_lipo>
-1.09087421147722

> <r_i_glide_hbond>
-0.222846405889321

> <r_i_glide_metal>
-2.3

> <r_i_glide_rewards>
-1.09859851094365

> <r_i_glide_evdw>
-33.1875915527344

> <r_i_glide_ecoul>
-16.2184162139893

> <r_i_glide_erotb>
1.59260965482209

> <r_i_glide_esite>
-0.116230895604882

> <r_i_glide_emodel>
-74.5561211473796

> <r_i_glide_energy>
-49.4060077667236

> <r_i_glide_einternal>
5.53412342071533

> <i_i_glide_confnum>
54

> <i_i_glide_posenum>
367

> <r_i_glide_eff_state_penalty>
0

> <s_user_duplicate_titles>
CHEMBL3192_lig626

> <s_m_subgroup_title>
dock_pv

> <s_m_subgroupid>
dock_pv

> <b_m_subgroup_collapsed>
1

$$$$
CHEMBL3192_lig852
                    3D
 Schrodinger Suite 2021-1.
 45 46  0  0  1  0            999 V2000
  -30.7349   24.8357  -38.0098 O   0  0  0  0  0  0
  -29.8321   25.8362  -37.6359 N   0  0  0  0  0  0
  -29.5890   26.8132  -38.5154 C   0  0  0  0  0  0
  -30.2058   26.8690  -39.5810 O   0  0  0  0  0  0
  -28.6074   27.8986  -38.0471 C   0  0  0  0  0  0
  -28.0750   28.9416  -39.0346 C   0  0  0  0  0  0
  -28.9220   29.6968  -39.8508 C   0  0  0  0  0  0
  -28.4149   30.7553  -40.5948 C   0  0  0  0  0  0
  -27.0519   31.0526  -40.5644 C   0  0  0  0  0  0
  -26.4807   32.1698  -41.4301 C   0  0  0  0  0  0
  -25.5679   31.6507  -42.5626 C   0  0  0  0  0  0
  -26.2960   30.7491  -43.5814 C   0  0  0  0  0  0
  -25.3611   29.9905  -44.5397 C   0  0  0  0  0  0
  -24.6221   30.8753  -45.5315 C   0  0  0  0  0  0
  -23.3036   31.2675  -45.2867 C   0  0  0  0  0  0
  -22.6137   32.0280  -46.2294 C   0  0  0  0  0  0
  -23.2358   32.3979  -47.4221 C   0  0  0  0  0  0
  -24.5598   32.0179  -47.6779 C   0  0  0  0  0  0
  -25.2490   31.2691  -46.7176 C   0  0  0  0  0  0
  -25.2580   32.3827  -48.9869 C   0  0  0  0  0  0
  -26.3921   33.0356  -48.7308 F   0  0  0  0  0  0
  -24.5003   33.1526  -49.7697 F   0  0  0  0  0  0
  -25.5469   31.2644  -49.6557 F   0  0  0  0  0  0
  -26.2023   30.3082  -39.7487 C   0  0  0  0  0  0
  -26.7164   29.2699  -38.9817 C   0  0  0  0  0  0
  -30.2042   24.0224  -37.9810 H   0  0  0  0  0  0
  -29.4456   25.7152  -36.7085 H   0  0  0  0  0  0
  -29.1232   28.4659  -37.2708 H   0  0  0  0  0  0
  -27.7620   27.3909  -37.5810 H   0  0  0  0  0  0
  -29.9788   29.5024  -39.8998 H   0  0  0  0  0  0
  -29.0953   31.3452  -41.1810 H   0  0  0  0  0  0
  -27.2871   32.7744  -41.8495 H   0  0  0  0  0  0
  -25.9155   32.8458  -40.7840 H   0  0  0  0  0  0
  -25.1268   32.5012  -43.0848 H   0  0  0  0  0  0
  -24.7289   31.1069  -42.1247 H   0  0  0  0  0  0
  -26.8877   30.0059  -43.0466 H   0  0  0  0  0  0
  -27.0131   31.3416  -44.1516 H   0  0  0  0  0  0
  -24.6465   29.3854  -43.9812 H   0  0  0  0  0  0
  -25.9482   29.2689  -45.1060 H   0  0  0  0  0  0
  -22.8046   30.9744  -44.3742 H   0  0  0  0  0  0
  -21.5901   32.3184  -46.0402 H   0  0  0  0  0  0
  -22.6782   32.9763  -48.1448 H   0  0  0  0  0  0
  -26.2689   30.9656  -46.9081 H   0  0  0  0  0  0
  -25.1475   30.5395  -39.6987 H   0  0  0  0  0  0
  -26.0479   28.7322  -38.3280 H   0  0  0  0  0  0
  1  2  1  0  0  0
  1 26  1  0  0  0
  2  3  1  0  0  0
  2 27  1  0  0  0
  3  4  2  0  0  0
  3  5  1  0  0  0
  5  6  1  0  0  0
  5 28  1  0  0  0
  5 29  1  0  0  0
  6  7  2  0  0  0
  6 25  1  0  0  0
  7  8  1  0  0  0
  7 30  1  0  0  0
  8  9  2  0  0  0
  8 31  1  0  0  0
  9 10  1  0  0  0
  9 24  1  0  0  0
 10 11  1  0  0  0
 10 32  1  0  0  0
 10 33  1  0  0  0
 11 12  1  0  0  0
 11 34  1  0  0  0
 11 35  1  0  0  0
 12 13  1  0  0  0
 12 36  1  0  0  0
 12 37  1  0  0  0
 13 14  1  0  0  0
 13 38  1  0  0  0
 13 39  1  0  0  0
 14 15  2  0  0  0
 14 19  1  0  0  0
 15 16  1  0  0  0
 15 40  1  0  0  0
 16 17  2  0  0  0
 16 41  1  0  0  0
 17 18  1  0  0  0
 17 42  1  0  0  0
 18 19  2  0  0  0
 18 20  1  0  0  0
 19 43  1  0  0  0
 20 21  1  0  0  0
 20 22  1  0  0  0
 20 23  1  0  0  0
 24 25  2  0  0  0
 24 44  1  0  0  0
 25 45  1  0  0  0
M  END
> <s_m_entry_id>
53059

> <s_m_entry_name>
dock_pv.278

> <s_m_Source_Path>
/home/csk/Desktop/cluster/DUD-E-result/hdac8

> <s_m_Source_File>
dock_pv.maegz

> <i_m_Source_File_Index>
278

> <chembl_id>
CHEMBL3698522

> <chembl_pref_name>
None

> <i_lp_mmshare_version>
53161

> <i_f3d_flags>
0

> <r_lp_tautomer_probability>
1

> <s_lp_Force_Field>
OPLS_2005

> <r_lp_Energy>
18.686907

> <b_lp_Chiralities_Consistent>
1

> <s_lp_Variant>
CHEMBL3192_lig852-1

> <s_i_glide_gridfile>
glide-grid_3f07

> <i_i_glide_lignum>
910

> <i_i_glide_rotatable_bonds>
10

> <r_i_docking_score>
-7.30527415644549

> <r_i_glide_ligand_efficiency>
-0.292210966257819

> <r_i_glide_ligand_efficiency_sa>
-0.854430047721417

> <r_i_glide_ligand_efficiency_ln>
-1.73156889647818

> <r_i_glide_gscore>
-7.30527415644549

> <r_i_glide_lipo>
-1.58624271603638

> <r_i_glide_hbond>
-0.304

> <r_i_glide_metal>
-1.63339673462072

> <r_i_glide_rewards>
-1.32058195133709

> <r_i_glide_evdw>
-26.3478317260742

> <r_i_glide_ecoul>
-14.6001100540161

> <r_i_glide_erotb>
1.23587489226998

> <r_i_glide_esite>
-0.189519552315154

> <r_i_glide_emodel>
-58.4096161737326

> <r_i_glide_energy>
-40.9479417800903

> <r_i_glide_einternal>
5.39409160614014

> <i_i_glide_confnum>
55

> <i_i_glide_posenum>
148

> <r_i_glide_eff_state_penalty>
0

> <s_user_duplicate_titles>
CHEMBL3192_lig852

> <s_m_subgroup_title>
dock_pv

> <s_m_subgroupid>
dock_pv

> <b_m_subgroup_collapsed>
1

$$$$
CHEMBL3192_lig1049
                    3D
 Schrodinger Suite 2021-1.
 46 49  0  0  1  0            999 V2000
  -30.4115   25.7693  -37.1698 O   0  0  0  0  0  0
  -29.5249   26.8232  -37.4677 N   0  0  0  0  0  0
  -29.4124   27.2216  -38.7439 C   0  0  0  0  0  0
  -30.2138   26.8193  -39.5810 O   0  0  0  0  0  0
  -28.3710   28.2767  -39.0703 C   0  0  0  0  0  0
  -27.1736   28.2896  -38.3779 C   0  0  0  0  0  0
  -26.2137   29.2704  -38.5773 C   0  0  0  0  0  0
  -26.3807   30.2489  -39.5413 C   0  0  0  0  0  0
  -25.2681   31.2734  -39.7652 C   0  0  0  0  0  0
  -25.7991   32.5525  -40.4210 C   0  0  0  0  0  0
  -26.5626   32.1674  -41.6904 C   0  0  1  0  0  0
  -27.8130   31.3285  -41.3374 C   0  0  0  0  0  0
  -27.5701   30.2423  -40.3021 C   0  0  0  0  0  0
  -28.5562   29.2683  -40.0447 C   0  0  0  0  0  0
  -26.9924   33.3820  -42.3842 N   0  0  0  0  0  0
  -27.0471   33.4703  -43.7813 C   0  0  0  0  0  0
  -27.9598   34.3511  -44.2620 N   0  0  0  0  0  0
  -28.0501   34.4577  -45.6108 C   0  0  0  0  0  0
  -27.2234   33.7405  -46.4750 C   0  0  0  0  0  0
  -26.2806   32.8758  -45.9004 C   0  0  0  0  0  0
  -26.2073   32.7177  -44.5451 N   0  0  0  0  0  0
  -25.2559   32.1653  -46.7252 C   0  0  0  0  0  0
  -23.9839   31.8450  -46.2140 C   0  0  0  0  0  0
  -23.0143   31.2703  -47.0347 C   0  0  0  0  0  0
  -23.3392   31.0082  -48.3648 C   0  0  0  0  0  0
  -24.5642   31.2694  -48.8841 N   0  0  0  0  0  0
  -25.4924   31.8327  -48.0691 C   0  0  0  0  0  0
  -29.8281   25.0250  -36.9806 H   0  0  0  0  0  0
  -29.0231   27.1670  -36.6503 H   0  0  0  0  0  0
  -27.0091   27.5430  -37.6165 H   0  0  0  0  0  0
  -25.3089   29.2527  -37.9858 H   0  0  0  0  0  0
  -24.7782   31.5229  -38.8222 H   0  0  0  0  0  0
  -24.5025   30.8278  -40.4015 H   0  0  0  0  0  0
  -26.4484   33.0880  -39.7241 H   0  0  0  0  0  0
  -24.9715   33.2274  -40.6494 H   0  0  0  0  0  0
  -25.9073   31.5776  -42.3318 H   0  0  0  0  0  0
  -28.2117   30.8688  -42.2391 H   0  0  0  0  0  0
  -28.5941   31.9737  -40.9317 H   0  0  0  0  0  0
  -29.4757   29.2924  -40.6123 H   0  0  0  0  0  0
  -27.5988   34.0057  -41.8765 H   0  0  0  0  0  0
  -28.7866   35.1532  -45.9956 H   0  0  0  0  0  0
  -27.2926   33.8926  -47.5403 H   0  0  0  0  0  0
  -23.7337   32.0736  -45.1879 H   0  0  0  0  0  0
  -22.0284   31.0446  -46.6506 H   0  0  0  0  0  0
  -22.6116   30.5754  -49.0362 H   0  0  0  0  0  0
  -26.4507   32.0310  -48.5284 H   0  0  0  0  0  0
  1  2  1  0  0  0
  1 28  1  0  0  0
  2  3  1  0  0  0
  2 29  1  0  0  0
  3  4  2  0  0  0
  3  5  1  0  0  0
  5  6  2  0  0  0
  5 14  1  0  0  0
  6  7  1  0  0  0
  6 30  1  0  0  0
  7  8  2  0  0  0
  7 31  1  0  0  0
  8  9  1  0  0  0
  8 13  1  0  0  0
  9 10  1  0  0  0
  9 32  1  0  0  0
  9 33  1  0  0  0
 10 11  1  0  0  0
 10 34  1  0  0  0
 10 35  1  0  0  0
 11 12  1  0  0  0
 11 15  1  0  0  0
 11 36  1  0  0  0
 12 13  1  0  0  0
 12 37  1  0  0  0
 12 38  1  0  0  0
 13 14  2  0  0  0
 14 39  1  0  0  0
 15 16  1  0  0  0
 15 40  1  0  0  0
 16 17  2  0  0  0
 16 21  1  0  0  0
 17 18  1  0  0  0
 18 19  2  0  0  0
 18 41  1  0  0  0
 19 20  1  0  0  0
 19 42  1  0  0  0
 20 21  2  0  0  0
 20 22  1  0  0  0
 22 23  2  0  0  0
 22 27  1  0  0  0
 23 24  1  0  0  0
 23 43  1  0  0  0
 24 25  2  0  0  0
 24 44  1  0  0  0
 25 26  1  0  0  0
 25 45  1  0  0  0
 26 27  2  0  0  0
 27 46  1  0  0  0
M  END
> <s_m_entry_id>
53060

> <s_m_entry_name>
dock_pv.279

> <s_m_Source_Path>
/home/csk/Desktop/cluster/DUD-E-result/hdac8

> <s_m_Source_File>
dock_pv.maegz

> <i_m_Source_File_Index>
279

> <chembl_id>
CHEMBL3357482

> <chembl_pref_name>
None

> <i_lp_mmshare_version>
53161

> <i_f3d_flags>
0

> <r_lp_tautomer_probability>
0.999999987636

> <s_lp_Force_Field>
OPLS_2005

> <r_lp_Energy>
28.161853

> <b_lp_Chiralities_Consistent>
1

> <s_lp_Variant>
CHEMBL3192_lig1049-2

> <s_i_glide_gridfile>
glide-grid_3f07

> <i_i_glide_lignum>
1138

> <i_i_glide_rotatable_bonds>
6

> <r_i_docking_score>
-7.30293409514521

> <r_i_glide_ligand_efficiency>
-0.270479040560934

> <r_i_glide_ligand_efficiency_sa>
-0.811437120791347

> <r_i_glide_ligand_efficiency_ln>
-1.70000265907161

> <r_i_glide_gscore>
-7.30293409514521

> <r_i_glide_lipo>
-1.00507910506331

> <r_i_glide_hbond>
-0.608

> <r_i_glide_metal>
-1.87433060849191

> <r_i_glide_rewards>
-1.16385053660245

> <r_i_glide_evdw>
-20.372579574585

> <r_i_glide_ecoul>
-14.372109413147

> <r_i_glide_erotb>
0.734643154774584

> <r_i_glide_esite>
-0.211871609060829

> <r_i_glide_emodel>
-48.295993880506

> <r_i_glide_energy>
-34.7446889877319

> <r_i_glide_einternal>
5.67310190200806

> <i_i_glide_confnum>
5

> <i_i_glide_posenum>
346

> <r_i_glide_eff_state_penalty>
0

> <s_user_duplicate_titles>
CHEMBL3192_lig1049,CHEMBL3192_lig645

> <s_m_subgroup_title>
dock_pv

> <s_m_subgroupid>
dock_pv

> <b_m_subgroup_collapsed>
1

$$$$
CHEMBL3192_lig424
                    3D
 Schrodinger Suite 2021-1.
 34 35  0  0  1  0            999 V2000
  -22.9094   31.9196  -42.9989 C   0  0  0  0  0  0
  -22.0957   32.6463  -42.1360 C   0  0  0  0  0  0
  -22.3999   32.7257  -40.7810 C   0  0  0  0  0  0
  -23.5231   32.0690  -40.2878 C   0  0  0  0  0  0
  -24.3570   31.3279  -41.1364 C   0  0  0  0  0  0
  -24.0359   31.2690  -42.5013 C   0  0  0  0  0  0
  -25.5558   30.6156  -40.5958 C   0  0  0  0  0  0
  -26.7065   30.4544  -41.3782 C   0  0  0  0  0  0
  -27.8151   29.7756  -40.8832 C   0  0  0  0  0  0
  -27.7914   29.2357  -39.5980 C   0  0  0  0  0  0
  -26.6624   29.4080  -38.8004 C   0  0  0  0  0  0
  -25.5554   30.0901  -39.2956 C   0  0  0  0  0  0
  -29.0130   28.5060  -39.0591 C   0  0  0  0  0  0
  -28.7311   27.0960  -38.4844 C   0  0  0  0  0  0
  -29.9976   26.2567  -38.2368 C   0  0  0  0  0  0
  -30.2130   25.7553  -37.0081 N   0  0  0  0  0  0
  -30.7675   26.0690  -39.1810 O   0  0  0  0  0  0
  -31.3180   24.9078  -36.8184 O   0  0  0  0  0  0
  -20.9916   33.2889  -42.6249 O   0  0  0  0  0  0
  -22.6660   31.8609  -44.0496 H   0  0  0  0  0  0
  -21.7817   33.2954  -40.1022 H   0  0  0  0  0  0
  -23.7462   32.1613  -39.2342 H   0  0  0  0  0  0
  -24.6465   30.7002  -43.1861 H   0  0  0  0  0  0
  -26.7556   30.8656  -42.3756 H   0  0  0  0  0  0
  -28.6888   29.6696  -41.5094 H   0  0  0  0  0  0
  -26.6378   29.0072  -37.8004 H   0  0  0  0  0  0
  -24.6842   30.1870  -38.6642 H   0  0  0  0  0  0
  -29.7619   28.4565  -39.8521 H   0  0  0  0  0  0
  -29.4130   29.1422  -38.2696 H   0  0  0  0  0  0
  -28.1380   27.1937  -37.5810 H   0  0  0  0  0  0
  -28.1060   26.5360  -39.1809 H   0  0  0  0  0  0
  -29.6302   25.8479  -36.1861 H   0  0  0  0  0  0
  -30.9292   24.0272  -36.7866 H   0  0  0  0  0  0
  -20.5127   33.7630  -41.9421 H   0  0  0  0  0  0
  1  6  1  0  0  0
  1  2  2  0  0  0
  1 20  1  0  0  0
  2  3  1  0  0  0
  2 19  1  0  0  0
  3  4  2  0  0  0
  3 21  1  0  0  0
  4  5  1  0  0  0
  4 22  1  0  0  0
  5  6  2  0  0  0
  5  7  1  0  0  0
  6 23  1  0  0  0
  7 12  1  0  0  0
  7  8  2  0  0  0
  8  9  1  0  0  0
  8 24  1  0  0  0
  9 10  2  0  0  0
  9 25  1  0  0  0
 10 11  1  0  0  0
 10 13  1  0  0  0
 11 12  2  0  0  0
 11 26  1  0  0  0
 12 27  1  0  0  0
 13 14  1  0  0  0
 13 28  1  0  0  0
 13 29  1  0  0  0
 14 15  1  0  0  0
 14 30  1  0  0  0
 14 31  1  0  0  0
 15 16  1  0  0  0
 15 17  2  0  0  0
 16 18  1  0  0  0
 16 32  1  0  0  0
 18 33  1  0  0  0
 19 34  1  0  0  0
M  END
> <s_m_entry_id>
53061

> <s_m_entry_name>
dock_pv.280

> <s_m_Source_Path>
/home/csk/Desktop/cluster/DUD-E-result/hdac8

> <s_m_Source_File>
dock_pv.maegz

> <i_m_Source_File_Index>
280

> <chembl_id>
CHEMBL551151

> <chembl_pref_name>
None

> <i_lp_mmshare_version>
53161

> <i_f3d_flags>
0

> <r_lp_tautomer_probability>
0.999999999997365

> <s_lp_Force_Field>
OPLS_2005

> <r_lp_Energy>
23.784706

> <b_lp_Chiralities_Consistent>
1

> <s_lp_Variant>
CHEMBL3192_lig424-1

> <s_i_glide_gridfile>
glide-grid_3f07

> <i_i_glide_lignum>
443

> <i_i_glide_rotatable_bonds>
7

> <r_i_docking_score>
-7.29607591113469

> <r_i_glide_ligand_efficiency>
-0.384003995322879

> <r_i_glide_ligand_efficiency_sa>
-1.02467689322968

> <r_i_glide_ligand_efficiency_ln>
-1.84971194881472

> <r_i_glide_gscore>
-7.29607591113469

> <r_i_glide_lipo>
-1.02621763953611

> <r_i_glide_hbond>
-0.241731544503055

> <r_i_glide_metal>
-2.3

> <r_i_glide_rewards>
-1.85471685042682

> <r_i_glide_evdw>
-27.3997898101807

> <r_i_glide_ecoul>
-11.5736427307129

> <r_i_glide_erotb>
1.33262602344726

> <r_i_glide_esite>
-0.1

> <r_i_glide_emodel>
-60.6071738841438

> <r_i_glide_energy>
-38.9734325408936

> <r_i_glide_einternal>
2.29228281974792

> <i_i_glide_confnum>
71

> <i_i_glide_posenum>
260

> <r_i_glide_eff_state_penalty>
0

> <s_user_duplicate_titles>
CHEMBL3192_lig424

> <s_m_subgroup_title>
dock_pv

> <s_m_subgroupid>
dock_pv

> <b_m_subgroup_collapsed>
1

$$$$
CHEMBL3192_lig731
                    3D
 Schrodinger Suite 2021-1.
 43 44  0  0  1  0            999 V2000
  -25.7844   31.3771  -39.5244 C   0  0  0  0  0  0
  -26.4382   30.0381  -39.9342 C   0  0  0  0  0  0
  -27.5152   29.5688  -38.9423 C   0  0  0  0  0  0
  -28.2639   28.2927  -39.3787 C   0  0  0  0  0  0
  -28.9059   27.5742  -38.1697 C   0  0  0  0  0  0
  -29.9183   26.4680  -38.4954 C   0  0  0  0  0  0
  -30.1527   25.5512  -37.5408 N   0  0  0  0  0  0
  -30.5106   26.4690  -39.5810 O   0  0  0  0  0  0
  -31.0131   24.4765  -37.8335 O   0  0  0  0  0  0
  -24.3440   31.5823  -40.0456 C   0  0  0  0  0  0
  -24.1753   31.5730  -41.5545 C   0  0  0  0  0  0
  -25.0817   31.4722  -42.4903 N   0  0  0  0  0  0
  -24.3588   31.4966  -43.5976 C   0  0  0  0  0  0
  -23.0560   31.6043  -43.4213 N   0  0  0  0  0  0
  -22.9146   31.6683  -42.0380 O   0  0  0  0  0  0
  -24.9781   31.4156  -44.9680 C   0  0  0  0  0  0
  -26.3690   31.3284  -45.1180 C   0  0  0  0  0  0
  -26.9453   31.2690  -46.3838 C   0  0  0  0  0  0
  -26.1352   31.2877  -47.5184 C   0  0  0  0  0  0
  -24.7500   31.3817  -47.3847 C   0  0  0  0  0  0
  -24.1755   31.4393  -46.1176 C   0  0  0  0  0  0
  -26.7660   31.2254  -48.8972 C   0  0  0  0  0  0
  -26.4163   32.2089  -39.8399 H   0  0  0  0  0  0
  -25.7446   31.4454  -38.4352 H   0  0  0  0  0  0
  -25.6701   29.2690  -40.0035 H   0  0  0  0  0  0
  -26.8677   30.1267  -40.9325 H   0  0  0  0  0  0
  -28.2397   30.3683  -38.7808 H   0  0  0  0  0  0
  -27.0305   29.3977  -37.9794 H   0  0  0  0  0  0
  -27.5727   27.6049  -39.8707 H   0  0  0  0  0  0
  -29.0122   28.5671  -40.1234 H   0  0  0  0  0  0
  -29.4136   28.3028  -37.5376 H   0  0  0  0  0  0
  -28.0961   27.1548  -37.5810 H   0  0  0  0  0  0
  -29.7158   25.4784  -36.6311 H   0  0  0  0  0  0
  -30.4196   23.7121  -37.8975 H   0  0  0  0  0  0
  -23.9624   32.5240  -39.6474 H   0  0  0  0  0  0
  -23.7050   30.8121  -39.6120 H   0  0  0  0  0  0
  -27.0146   31.3110  -44.2521 H   0  0  0  0  0  0
  -28.0195   31.2017  -46.4809 H   0  0  0  0  0  0
  -24.1147   31.4074  -48.2580 H   0  0  0  0  0  0
  -23.1003   31.5105  -46.0377 H   0  0  0  0  0  0
  -27.6853   31.8125  -48.9225 H   0  0  0  0  0  0
  -26.1072   31.6417  -49.6601 H   0  0  0  0  0  0
  -27.0144   30.1965  -49.1581 H   0  0  0  0  0  0
  1  2  1  0  0  0
  1 10  1  0  0  0
  1 23  1  0  0  0
  1 24  1  0  0  0
  2  3  1  0  0  0
  2 25  1  0  0  0
  2 26  1  0  0  0
  3  4  1  0  0  0
  3 27  1  0  0  0
  3 28  1  0  0  0
  4  5  1  0  0  0
  4 29  1  0  0  0
  4 30  1  0  0  0
  5  6  1  0  0  0
  5 31  1  0  0  0
  5 32  1  0  0  0
  6  7  1  0  0  0
  6  8  2  0  0  0
  7  9  1  0  0  0
  7 33  1  0  0  0
  9 34  1  0  0  0
 10 11  1  0  0  0
 10 35  1  0  0  0
 10 36  1  0  0  0
 11 12  2  0  0  0
 11 15  1  0  0  0
 12 13  1  0  0  0
 13 14  2  0  0  0
 13 16  1  0  0  0
 14 15  1  0  0  0
 16 17  2  0  0  0
 16 21  1  0  0  0
 17 18  1  0  0  0
 17 37  1  0  0  0
 18 19  2  0  0  0
 18 38  1  0  0  0
 19 20  1  0  0  0
 19 22  1  0  0  0
 20 21  2  0  0  0
 20 39  1  0  0  0
 21 40  1  0  0  0
 22 41  1  0  0  0
 22 42  1  0  0  0
 22 43  1  0  0  0
M  END
> <s_m_entry_id>
53062

> <s_m_entry_name>
dock_pv.281

> <s_m_Source_Path>
/home/csk/Desktop/cluster/DUD-E-result/hdac8

> <s_m_Source_File>
dock_pv.maegz

> <i_m_Source_File_Index>
281

> <chembl_id>
CHEMBL3585959

> <chembl_pref_name>
None

> <i_lp_mmshare_version>
53161

> <i_f3d_flags>
0

> <r_lp_tautomer_probability>
1

> <s_lp_Force_Field>
OPLS_2005

> <r_lp_Energy>
15.749278

> <b_lp_Chiralities_Consistent>
1

> <s_lp_Variant>
CHEMBL3192_lig731-1

> <s_i_glide_gridfile>
glide-grid_3f07

> <i_i_glide_lignum>
782

> <i_i_glide_rotatable_bonds>
10

> <r_i_docking_score>
-7.29518375393669

> <r_i_glide_ligand_efficiency>
-0.331599261542577

> <r_i_glide_ligand_efficiency_sa>
-0.929154171901231

> <r_i_glide_ligand_efficiency_ln>
-1.78320900775501

> <r_i_glide_gscore>
-7.29518375393669

> <r_i_glide_lipo>
-1.03221298269498

> <r_i_glide_hbond>
-0.304

> <r_i_glide_metal>
-2.3

> <r_i_glide_rewards>
-1.41511301193554

> <r_i_glide_evdw>
-24.7900772094727

> <r_i_glide_ecoul>
-17.7265300750732

> <r_i_glide_erotb>
1.80205018371269

> <r_i_glide_esite>
-0.14742457128424

> <r_i_glide_emodel>
-63.6835710430942

> <r_i_glide_energy>
-42.5166072845459

> <r_i_glide_einternal>
5.94058418273926

> <i_i_glide_confnum>
37

> <i_i_glide_posenum>
81

> <r_i_glide_eff_state_penalty>
0

> <s_user_duplicate_titles>
CHEMBL3192_lig731

> <s_m_subgroup_title>
dock_pv

> <s_m_subgroupid>
dock_pv

> <b_m_subgroup_collapsed>
1

$$$$
CHEMBL3192_lig924
                    3D
 Schrodinger Suite 2021-1.
 45 46  0  0  1  0            999 V2000
  -25.2004   32.4103  -45.9303 C   0  0  0  0  0  0
  -23.9537   32.9249  -45.3612 N   0  0  0  0  0  0
  -23.3263   34.0565  -46.0455 C   0  0  0  0  0  0
  -23.5733   32.5901  -44.0312 C   0  0  0  0  0  0
  -24.2651   31.6088  -43.3083 C   0  0  0  0  0  0
  -23.8876   31.2690  -42.0134 C   0  0  0  0  0  0
  -22.8070   31.8995  -41.3803 C   0  0  0  0  0  0
  -22.3143   31.5232  -39.9810 C   0  0  0  0  0  0
  -23.1542   31.0568  -38.9955 N   0  0  0  0  0  0
  -22.5920   30.7813  -37.6491 C   0  0  0  0  0  0
  -24.5127   31.0714  -39.1762 N   0  0  0  0  0  0
  -25.2043   30.0697  -38.7842 C   0  0  0  0  0  0
  -26.6036   29.8791  -39.1834 C   0  0  0  0  0  0
  -27.3166   28.7366  -38.7810 C   0  0  0  0  0  0
  -28.6134   28.4845  -39.2566 C   0  0  0  0  0  0
  -29.4130   27.2690  -38.8373 C   0  0  0  0  0  0
  -29.3062   26.8690  -37.5810 N   0  0  0  0  0  0
  -30.2130   25.9063  -37.0885 O   0  0  0  0  0  0
  -30.2400   26.7516  -39.5810 O   0  0  0  0  0  0
  -29.1893   29.4085  -40.1393 C   0  0  0  0  0  0
  -28.5154   30.5629  -40.5113 C   0  0  0  0  0  0
  -27.2329   30.7968  -40.0374 C   0  0  0  0  0  0
  -21.1056   31.6690  -39.7637 O   0  0  0  0  0  0
  -22.1087   32.8735  -42.1059 C   0  0  0  0  0  0
  -22.4861   33.2151  -43.4025 C   0  0  0  0  0  0
  -26.0544   32.7795  -45.3609 H   0  0  0  0  0  0
  -25.2277   31.3207  -45.8990 H   0  0  0  0  0  0
  -25.3362   32.7151  -46.9687 H   0  0  0  0  0  0
  -23.5629   34.9873  -45.5283 H   0  0  0  0  0  0
  -22.2408   33.9537  -46.0618 H   0  0  0  0  0  0
  -23.6644   34.1526  -47.0779 H   0  0  0  0  0  0
  -25.1006   31.0800  -43.7379 H   0  0  0  0  0  0
  -24.4337   30.4690  -41.5414 H   0  0  0  0  0  0
  -21.8252   30.0116  -37.7011 H   0  0  0  0  0  0
  -22.1054   31.6690  -37.2463 H   0  0  0  0  0  0
  -23.3276   30.4690  -36.9081 H   0  0  0  0  0  0
  -24.7815   29.2690  -38.1834 H   0  0  0  0  0  0
  -26.8485   28.0258  -38.1145 H   0  0  0  0  0  0
  -28.7151   27.2690  -36.8533 H   0  0  0  0  0  0
  -30.7706   26.4021  -36.4809 H   0  0  0  0  0  0
  -30.1835   29.2564  -40.5339 H   0  0  0  0  0  0
  -28.9797   31.2690  -41.1810 H   0  0  0  0  0  0
  -26.7183   31.6904  -40.3651 H   0  0  0  0  0  0
  -21.2594   33.3794  -41.6673 H   0  0  0  0  0  0
  -21.9084   33.9749  -43.9041 H   0  0  0  0  0  0
  1  2  1  0  0  0
  1 26  1  0  0  0
  1 27  1  0  0  0
  1 28  1  0  0  0
  2  3  1  0  0  0
  2  4  1  0  0  0
  3 29  1  0  0  0
  3 30  1  0  0  0
  3 31  1  0  0  0
  4  5  2  0  0  0
  4 25  1  0  0  0
  5  6  1  0  0  0
  5 32  1  0  0  0
  6  7  2  0  0  0
  6 33  1  0  0  0
  7  8  1  0  0  0
  7 24  1  0  0  0
  8  9  1  0  0  0
  8 23  2  0  0  0
  9 10  1  0  0  0
  9 11  1  0  0  0
 10 34  1  0  0  0
 10 35  1  0  0  0
 10 36  1  0  0  0
 11 12  2  0  0  0
 12 13  1  0  0  0
 12 37  1  0  0  0
 13 14  2  0  0  0
 13 22  1  0  0  0
 14 15  1  0  0  0
 14 38  1  0  0  0
 15 16  1  0  0  0
 15 20  2  0  0  0
 16 17  1  0  0  0
 16 19  2  0  0  0
 17 18  1  0  0  0
 17 39  1  0  0  0
 18 40  1  0  0  0
 20 21  1  0  0  0
 20 41  1  0  0  0
 21 22  2  0  0  0
 21 42  1  0  0  0
 22 43  1  0  0  0
 24 25  2  0  0  0
 24 44  1  0  0  0
 25 45  1  0  0  0
M  END
> <s_m_entry_id>
53063

> <s_m_entry_name>
dock_pv.282

> <s_m_Source_Path>
/home/csk/Desktop/cluster/DUD-E-result/hdac8

> <s_m_Source_File>
dock_pv.maegz

> <i_m_Source_File_Index>
282

> <chembl_id>
CHEMBL3764442

> <chembl_pref_name>
None

> <i_lp_mmshare_version>
53161

> <i_f3d_flags>
0

> <r_lp_tautomer_probability>
1

> <s_lp_Force_Field>
OPLS_2005

> <r_lp_Energy>
43.763413

> <b_lp_Chiralities_Consistent>
1

> <s_lp_Variant>
CHEMBL3192_lig924-1

> <s_i_glide_gridfile>
glide-grid_3f07

> <i_i_glide_lignum>
985

> <i_i_glide_rotatable_bonds>
8

> <r_i_docking_score>
-7.29427821548906

> <r_i_glide_ligand_efficiency>
-0.291771128619562

> <r_i_glide_ligand_efficiency_sa>
-0.853143954666599

> <r_i_glide_ligand_efficiency_ln>
-1.72896252894974

> <r_i_glide_gscore>
-7.29427821548906

> <r_i_glide_lipo>
-1.03146503790414

> <r_i_glide_hbond>
-0.608

> <r_i_glide_metal>
-2.21579537573806

> <r_i_glide_rewards>
-1.36353541580005

> <r_i_glide_evdw>
-22.7695541381836

> <r_i_glide_ecoul>
-11.1658868789673

> <r_i_glide_erotb>
0.980694765511703

> <r_i_glide_esite>
-0.242816412804239

> <r_i_glide_emodel>
-49.8947151843951

> <r_i_glide_energy>
-33.9354410171509

> <r_i_glide_einternal>
4.02034473419189

> <i_i_glide_confnum>
11

> <i_i_glide_posenum>
147

> <r_i_glide_eff_state_penalty>
0

> <s_user_duplicate_titles>
CHEMBL3192_lig924

> <s_m_subgroup_title>
dock_pv

> <s_m_subgroupid>
dock_pv

> <b_m_subgroup_collapsed>
1

$$$$
CHEMBL3192_lig1071
                    3D
 Schrodinger Suite 2021-1.
 42 44  0  0  1  0            999 V2000
  -30.2571   25.6690  -37.2929 O   0  0  0  0  0  0
  -29.4130   26.7587  -37.5810 N   0  0  0  0  0  0
  -29.3867   27.2412  -38.8246 C   0  0  0  0  0  0
  -30.2130   26.8690  -39.6526 O   0  0  0  0  0  0
  -28.3509   28.3078  -39.1258 C   0  0  0  0  0  0
  -27.1821   28.3519  -38.3810 C   0  0  0  0  0  0
  -26.2130   29.3158  -38.5915 C   0  0  0  0  0  0
  -26.3370   30.2583  -39.5961 C   0  0  0  0  0  0
  -25.1723   31.2228  -39.8482 C   0  0  0  0  0  0
  -25.5510   32.3836  -40.7836 C   0  0  0  0  0  0
  -26.3685   31.8951  -41.9920 C   0  0  2  0  0  0
  -27.6830   31.2702  -41.4893 C   0  0  0  0  0  0
  -27.5038   30.2337  -40.3900 C   0  0  0  0  0  0
  -28.5006   29.2690  -40.1378 C   0  0  0  0  0  0
  -25.5849   30.8663  -42.7207 N   0  0  2  0  0  0
  -24.5112   31.3257  -44.0337 S   0  0  0  0  0  0
  -23.6277   32.3907  -43.5525 O   0  0  0  0  0  0
  -23.9539   30.0731  -44.5601 O   0  0  0  0  0  0
  -25.6199   31.9991  -45.2917 C   0  0  0  0  0  0
  -26.1208   31.1018  -46.2394 C   0  0  0  0  0  0
  -27.0268   31.5145  -47.2133 C   0  0  0  0  0  0
  -27.4442   32.8409  -47.2536 C   0  0  0  0  0  0
  -28.5891   33.3478  -48.4413 Cl  0  0  0  0  0  0
  -26.9363   33.7541  -46.3316 C   0  0  0  0  0  0
  -26.0241   33.3487  -45.3532 C   0  0  0  0  0  0
  -25.4569   34.5616  -44.2579 Cl  0  0  0  0  0  0
  -29.6513   24.9276  -37.1810 H   0  0  0  0  0  0
  -28.8230   27.0353  -36.8003 H   0  0  0  0  0  0
  -27.0130   27.6293  -37.5970 H   0  0  0  0  0  0
  -25.3150   29.2994  -37.9906 H   0  0  0  0  0  0
  -24.7935   31.6213  -38.9049 H   0  0  0  0  0  0
  -24.3489   30.6576  -40.2883 H   0  0  0  0  0  0
  -26.1322   33.1131  -40.2165 H   0  0  0  0  0  0
  -24.6445   32.8979  -41.1066 H   0  0  0  0  0  0
  -26.5196   32.7758  -42.6126 H   0  0  0  0  0  0
  -28.2129   30.8287  -42.3263 H   0  0  0  0  0  0
  -28.3177   32.0649  -41.0989 H   0  0  0  0  0  0
  -29.3957   29.2697  -40.7438 H   0  0  0  0  0  0
  -26.0732   29.9818  -42.8682 H   0  0  0  0  0  0
  -25.8130   30.0690  -46.2160 H   0  0  0  0  0  0
  -27.4129   30.8055  -47.9317 H   0  0  0  0  0  0
  -27.2559   34.7852  -46.3735 H   0  0  0  0  0  0
  1  2  1  0  0  0
  1 27  1  0  0  0
  2  3  1  0  0  0
  2 28  1  0  0  0
  3  4  2  0  0  0
  3  5  1  0  0  0
  5  6  2  0  0  0
  5 14  1  0  0  0
  6  7  1  0  0  0
  6 29  1  0  0  0
  7  8  2  0  0  0
  7 30  1  0  0  0
  8  9  1  0  0  0
  8 13  1  0  0  0
  9 10  1  0  0  0
  9 31  1  0  0  0
  9 32  1  0  0  0
 10 11  1  0  0  0
 10 33  1  0  0  0
 10 34  1  0  0  0
 11 12  1  0  0  0
 11 15  1  0  0  0
 11 35  1  0  0  0
 12 13  1  0  0  0
 12 36  1  0  0  0
 12 37  1  0  0  0
 13 14  2  0  0  0
 14 38  1  0  0  0
 15 16  1  0  0  0
 15 39  1  0  0  0
 16 17  2  0  0  0
 16 18  2  0  0  0
 16 19  1  0  0  0
 19 20  2  0  0  0
 19 25  1  0  0  0
 20 21  1  0  0  0
 20 40  1  0  0  0
 21 22  2  0  0  0
 21 41  1  0  0  0
 22 23  1  0  0  0
 22 24  1  0  0  0
 24 25  2  0  0  0
 24 42  1  0  0  0
 25 26  1  0  0  0
M  END
> <s_m_entry_id>
53064

> <s_m_entry_name>
dock_pv.283

> <s_m_Source_Path>
/home/csk/Desktop/cluster/DUD-E-result/hdac8

> <s_m_Source_File>
dock_pv.maegz

> <i_m_Source_File_Index>
283

> <chembl_id>
CHEMBL3694316

> <chembl_pref_name>
None

> <i_lp_mmshare_version>
53161

> <i_f3d_flags>
0

> <r_lp_tautomer_probability>
1

> <s_lp_Force_Field>
OPLS_2005

> <r_lp_Energy>
27.232555

> <b_lp_Chiralities_Consistent>
1

> <s_lp_Variant>
CHEMBL3192_lig1071-1

> <s_i_glide_gridfile>
glide-grid_3f07

> <i_i_glide_lignum>
1181

> <i_i_glide_rotatable_bonds>
6

> <r_i_docking_score>
-7.29118870341844

> <r_i_glide_ligand_efficiency>
-0.280430334746863

> <r_i_glide_ligand_efficiency_sa>
-0.830773763247498

> <r_i_glide_ligand_efficiency_ln>
-1.71231174265633

> <r_i_glide_gscore>
-7.29118870341844

> <r_i_glide_lipo>
-1.32775778186202

> <r_i_glide_hbond>
-0.608

> <r_i_glide_metal>
-1.86133784268045

> <r_i_glide_rewards>
-0.73078001819787

> <r_i_glide_evdw>
-22.8844966888428

> <r_i_glide_ecoul>
-13.2768583297729

> <r_i_glide_erotb>
0.572440523229983

> <r_i_glide_esite>
-0.2

> <r_i_glide_emodel>
-56.4655860047632

> <r_i_glide_energy>
-36.1613550186157

> <r_i_glide_einternal>
0.936944961547852

> <i_i_glide_confnum>
216

> <i_i_glide_posenum>
397

> <r_i_glide_eff_state_penalty>
0

> <s_user_duplicate_titles>
CHEMBL3192_lig1071

> <s_m_subgroup_title>
dock_pv

> <s_m_subgroupid>
dock_pv

> <b_m_subgroup_collapsed>
1

$$$$
CHEMBL3192_lig941
                    3D
 Schrodinger Suite 2021-1.
 49 51  0  0  1  0            999 V2000
  -27.8432   34.6586  -43.4814 C   0  0  0  0  0  0
  -28.8090   34.8683  -44.4603 C   0  0  0  0  0  0
  -28.8003   34.1190  -45.6333 C   0  0  0  0  0  0
  -26.8577   33.6888  -43.6502 C   0  0  0  0  0  0
  -26.8206   32.8912  -44.8309 C   0  0  0  0  0  0
  -27.8055   33.1349  -45.8406 C   0  0  0  0  0  0
  -27.8130   32.4559  -47.0182 N   0  0  0  0  0  0
  -26.8338   31.5432  -47.2001 C   0  0  0  0  0  0
  -25.8494   31.2247  -46.3310 N   0  0  0  0  0  0
  -25.8443   31.8785  -45.1375 C   0  0  0  0  0  0
  -24.8163   31.5061  -44.2325 N   0  0  0  0  0  0
  -24.9592   31.2780  -42.8423 C   0  0  0  0  0  0
  -23.4460   31.5296  -44.7690 C   0  0  0  0  0  0
  -26.1177   30.6522  -42.3634 C   0  0  0  0  0  0
  -26.2933   30.3754  -41.0064 C   0  0  0  0  0  0
  -25.3082   30.7914  -40.0987 C   0  0  0  0  0  0
  -24.1556   31.4275  -40.5530 C   0  0  0  0  0  0
  -23.9739   31.6528  -41.9165 C   0  0  0  0  0  0
  -27.4419   29.6928  -40.6618 O   0  0  0  0  0  0
  -27.6106   29.2106  -39.3303 C   0  0  0  0  0  0
  -28.6316   28.0688  -39.4030 C   0  0  0  0  0  0
  -29.0244   27.4697  -38.0374 C   0  0  0  0  0  0
  -30.0221   26.2995  -38.1184 C   0  0  0  0  0  0
  -30.2130   25.5807  -37.0002 N   0  0  0  0  0  0
  -30.6112   26.0690  -39.1807 O   0  0  0  0  0  0
  -31.0762   24.4744  -37.0643 O   0  0  0  0  0  0
  -26.8577   30.7892  -48.5140 C   0  0  0  0  0  0
  -27.8509   35.2614  -42.5843 H   0  0  0  0  0  0
  -29.5647   35.6270  -44.3150 H   0  0  0  0  0  0
  -29.5450   34.2913  -46.3987 H   0  0  0  0  0  0
  -26.1091   33.5690  -42.8825 H   0  0  0  0  0  0
  -23.3932   31.2744  -45.8286 H   0  0  0  0  0  0
  -23.0241   32.5291  -44.6592 H   0  0  0  0  0  0
  -22.7932   30.8346  -44.2385 H   0  0  0  0  0  0
  -26.8864   30.3459  -43.0563 H   0  0  0  0  0  0
  -25.4152   30.6317  -39.0366 H   0  0  0  0  0  0
  -23.4033   31.7492  -39.8458 H   0  0  0  0  0  0
  -23.0726   32.1521  -42.2397 H   0  0  0  0  0  0
  -27.9638   30.0218  -38.6934 H   0  0  0  0  0  0
  -26.6814   28.8205  -38.9101 H   0  0  0  0  0  0
  -28.1739   27.2689  -39.9816 H   0  0  0  0  0  0
  -29.5093   28.4144  -39.9505 H   0  0  0  0  0  0
  -29.4386   28.2421  -37.3885 H   0  0  0  0  0  0
  -28.1074   27.1104  -37.5810 H   0  0  0  0  0  0
  -29.7670   25.6945  -36.0994 H   0  0  0  0  0  0
  -30.4801   23.7231  -37.1797 H   0  0  0  0  0  0
  -27.3468   31.3735  -49.2954 H   0  0  0  0  0  0
  -25.8486   30.5562  -48.8528 H   0  0  0  0  0  0
  -27.4126   29.8589  -48.3986 H   0  0  0  0  0  0
  1  2  2  0  0  0
  1  4  1  0  0  0
  1 28  1  0  0  0
  2  3  1  0  0  0
  2 29  1  0  0  0
  3  6  2  0  0  0
  3 30  1  0  0  0
  4  5  2  0  0  0
  4 31  1  0  0  0
  5  6  1  0  0  0
  5 10  1  0  0  0
  6  7  1  0  0  0
  7  8  2  0  0  0
  8  9  1  0  0  0
  8 27  1  0  0  0
  9 10  2  0  0  0
 10 11  1  0  0  0
 11 12  1  0  0  0
 11 13  1  0  0  0
 12 14  2  0  0  0
 12 18  1  0  0  0
 13 32  1  0  0  0
 13 33  1  0  0  0
 13 34  1  0  0  0
 14 15  1  0  0  0
 14 35  1  0  0  0
 15 16  2  0  0  0
 15 19  1  0  0  0
 16 17  1  0  0  0
 16 36  1  0  0  0
 17 18  2  0  0  0
 17 37  1  0  0  0
 18 38  1  0  0  0
 19 20  1  0  0  0
 20 21  1  0  0  0
 20 39  1  0  0  0
 20 40  1  0  0  0
 21 22  1  0  0  0
 21 41  1  0  0  0
 21 42  1  0  0  0
 22 23  1  0  0  0
 22 43  1  0  0  0
 22 44  1  0  0  0
 23 24  1  0  0  0
 23 25  2  0  0  0
 24 26  1  0  0  0
 24 45  1  0  0  0
 26 46  1  0  0  0
 27 47  1  0  0  0
 27 48  1  0  0  0
 27 49  1  0  0  0
M  END
> <s_m_entry_id>
53065

> <s_m_entry_name>
dock_pv.284

> <s_m_Source_Path>
/home/csk/Desktop/cluster/DUD-E-result/hdac8

> <s_m_Source_File>
dock_pv.maegz

> <i_m_Source_File_Index>
284

> <chembl_id>
CHEMBL3775009

> <chembl_pref_name>
None

> <i_lp_mmshare_version>
53161

> <i_f3d_flags>
0

> <r_lp_tautomer_probability>
1

> <s_lp_Force_Field>
OPLS_2005

> <r_lp_Energy>
31.517312

> <b_lp_Chiralities_Consistent>
1

> <s_lp_Variant>
CHEMBL3192_lig941-1

> <s_i_glide_gridfile>
glide-grid_3f07

> <i_i_glide_lignum>
1002

> <i_i_glide_rotatable_bonds>
9

> <r_i_docking_score>
-7.28655310564154

> <r_i_glide_ligand_efficiency>
-0.269872337245983

> <r_i_glide_ligand_efficiency_sa>
-0.809617010848494

> <r_i_glide_ligand_efficiency_ln>
-1.69618943477687

> <r_i_glide_gscore>
-7.28655310564154

> <r_i_glide_lipo>
-0.94539128475519

> <r_i_glide_hbond>
-0.22243127780765

> <r_i_glide_metal>
-2.3

> <r_i_glide_rewards>
-0.883041346171783

> <r_i_glide_evdw>
-35.1858863830566

> <r_i_glide_ecoul>
-14.8217468261719

> <r_i_glide_erotb>
1.14686714617169

> <r_i_glide_esite>
-0.1

> <r_i_glide_emodel>
-71.6699056857774

> <r_i_glide_energy>
-50.0076332092285

> <r_i_glide_einternal>
9.5235424041748

> <i_i_glide_confnum>
101

> <i_i_glide_posenum>
189

> <r_i_glide_eff_state_penalty>
0

> <s_user_duplicate_titles>
CHEMBL3192_lig941

> <s_m_subgroup_title>
dock_pv

> <s_m_subgroupid>
dock_pv

> <b_m_subgroup_collapsed>
1

$$$$
CHEMBL3192_lig1072
                    3D
 Schrodinger Suite 2021-1.
 42 44  0  0  1  0            999 V2000
  -30.2617   25.6690  -37.2929 O   0  0  0  0  0  0
  -29.4130   26.7547  -37.5810 N   0  0  0  0  0  0
  -29.3867   27.2393  -38.8235 C   0  0  0  0  0  0
  -30.2130   26.8690  -39.6524 O   0  0  0  0  0  0
  -28.3499   28.3049  -39.1235 C   0  0  0  0  0  0
  -27.1795   28.3473  -38.3810 C   0  0  0  0  0  0
  -26.2130   29.3166  -38.5850 C   0  0  0  0  0  0
  -26.3475   30.2706  -39.5778 C   0  0  0  0  0  0
  -25.1970   31.2557  -39.8135 C   0  0  0  0  0  0
  -25.5856   32.4119  -40.7521 C   0  0  0  0  0  0
  -26.3840   31.9136  -41.9699 C   0  0  2  0  0  0
  -27.6959   31.2790  -41.4730 C   0  0  0  0  0  0
  -27.5122   30.2413  -40.3754 C   0  0  0  0  0  0
  -28.5030   29.2690  -40.1310 C   0  0  0  0  0  0
  -25.5813   30.8837  -42.6756 N   0  0  2  0  0  0
  -24.4598   31.3436  -43.9442 S   0  0  0  0  0  0
  -23.6996   32.5093  -43.4832 O   0  0  0  0  0  0
  -23.7826   30.1162  -44.3810 O   0  0  0  0  0  0
  -25.5013   31.8971  -45.2933 C   0  0  0  0  0  0
  -26.0748   33.1716  -45.2794 C   0  0  0  0  0  0
  -26.9058   33.5743  -46.3261 C   0  0  0  0  0  0
  -27.1475   32.7209  -47.4051 C   0  0  0  0  0  0
  -28.1861   33.2563  -48.6807 Cl  0  0  0  0  0  0
  -26.5439   31.4567  -47.4380 C   0  0  0  0  0  0
  -26.7526   30.3867  -48.7810 Cl  0  0  0  0  0  0
  -25.7390   31.0487  -46.3739 C   0  0  0  0  0  0
  -29.6591   24.9250  -37.1810 H   0  0  0  0  0  0
  -28.8231   27.0296  -36.7995 H   0  0  0  0  0  0
  -27.0130   27.6207  -37.6003 H   0  0  0  0  0  0
  -25.3152   29.3010  -37.9837 H   0  0  0  0  0  0
  -24.8382   31.6591  -38.8645 H   0  0  0  0  0  0
  -24.3576   30.7064  -40.2432 H   0  0  0  0  0  0
  -26.1839   33.1302  -40.1884 H   0  0  0  0  0  0
  -24.6837   32.9416  -41.0619 H   0  0  0  0  0  0
  -26.5277   32.7925  -42.5968 H   0  0  0  0  0  0
  -28.2130   30.8307  -42.3141 H   0  0  0  0  0  0
  -28.3419   32.0667  -41.0868 H   0  0  0  0  0  0
  -29.3976   29.2690  -40.7377 H   0  0  0  0  0  0
  -26.0570   29.9938  -42.8328 H   0  0  0  0  0  0
  -25.8781   33.8521  -44.4633 H   0  0  0  0  0  0
  -27.3564   34.5561  -46.3052 H   0  0  0  0  0  0
  -25.2890   30.0690  -46.3851 H   0  0  0  0  0  0
  1  2  1  0  0  0
  1 27  1  0  0  0
  2  3  1  0  0  0
  2 28  1  0  0  0
  3  4  2  0  0  0
  3  5  1  0  0  0
  5  6  2  0  0  0
  5 14  1  0  0  0
  6  7  1  0  0  0
  6 29  1  0  0  0
  7  8  2  0  0  0
  7 30  1  0  0  0
  8  9  1  0  0  0
  8 13  1  0  0  0
  9 10  1  0  0  0
  9 31  1  0  0  0
  9 32  1  0  0  0
 10 11  1  0  0  0
 10 33  1  0  0  0
 10 34  1  0  0  0
 11 12  1  0  0  0
 11 15  1  0  0  0
 11 35  1  0  0  0
 12 13  1  0  0  0
 12 36  1  0  0  0
 12 37  1  0  0  0
 13 14  2  0  0  0
 14 38  1  0  0  0
 15 16  1  0  0  0
 15 39  1  0  0  0
 16 17  2  0  0  0
 16 18  2  0  0  0
 16 19  1  0  0  0
 19 20  2  0  0  0
 19 26  1  0  0  0
 20 21  1  0  0  0
 20 40  1  0  0  0
 21 22  2  0  0  0
 21 41  1  0  0  0
 22 23  1  0  0  0
 22 24  1  0  0  0
 24 25  1  0  0  0
 24 26  2  0  0  0
 26 42  1  0  0  0
M  END
> <s_m_entry_id>
53066

> <s_m_entry_name>
dock_pv.285

> <s_m_Source_Path>
/home/csk/Desktop/cluster/DUD-E-result/hdac8

> <s_m_Source_File>
dock_pv.maegz

> <i_m_Source_File_Index>
285

> <chembl_id>
CHEMBL3694317

> <chembl_pref_name>
None

> <i_lp_mmshare_version>
53161

> <i_f3d_flags>
0

> <r_lp_tautomer_probability>
1

> <s_lp_Force_Field>
OPLS_2005

> <r_lp_Energy>
27.807813

> <b_lp_Chiralities_Consistent>
1

> <s_lp_Variant>
CHEMBL3192_lig1072-1

> <s_i_glide_gridfile>
glide-grid_3f07

> <i_i_glide_lignum>
1183

> <i_i_glide_rotatable_bonds>
6

> <r_i_docking_score>
-7.28045531360502

> <r_i_glide_ligand_efficiency>
-0.280017512061732

> <r_i_glide_ligand_efficiency_sa>
-0.829550777667175

> <r_i_glide_ligand_efficiency_ln>
-1.70979104127777

> <r_i_glide_gscore>
-7.28045531360502

> <r_i_glide_lipo>
-1.27523452952984

> <r_i_glide_hbond>
-0.608

> <r_i_glide_metal>
-1.8607373264285

> <r_i_glide_rewards>
-0.747375856511885

> <r_i_glide_evdw>
-23.2894687652588

> <r_i_glide_ecoul>
-13.2928104400635

> <r_i_glide_erotb>
0.572440523229983

> <r_i_glide_esite>
-0.203153120092321

> <r_i_glide_emodel>
-55.4992702206338

> <r_i_glide_energy>
-36.5822792053223

> <r_i_glide_einternal>
1.74307632446289

> <i_i_glide_confnum>
151

> <i_i_glide_posenum>
324

> <r_i_glide_eff_state_penalty>
0

> <s_user_duplicate_titles>
CHEMBL3192_lig1072

> <s_m_subgroup_title>
dock_pv

> <s_m_subgroupid>
dock_pv

> <b_m_subgroup_collapsed>
1

$$$$
CHEMBL3192_lig359
                    3D
 Schrodinger Suite 2021-1.
 56 57  0  0  1  0            999 V2000
  -23.4748   31.2133  -43.6926 C   0  0  0  0  0  0
  -24.8686   31.1781  -43.8719 C   0  0  0  0  0  0
  -25.3868   31.2045  -45.1825 C   0  0  0  0  0  0
  -22.6131   31.3108  -44.7814 C   0  0  0  0  0  0
  -26.8998   31.1830  -45.4015 C   0  0  0  0  0  0
  -27.5419   32.5851  -45.3303 C   0  0  0  0  0  0
  -27.2896   33.5117  -46.5445 C   0  0  0  0  0  0
  -27.7739   34.9434  -46.2506 C   0  0  0  0  0  0
  -27.9383   32.9806  -47.8400 C   0  0  0  0  0  0
  -25.7699   31.1146  -42.8186 O   0  0  0  0  0  0
  -25.3199   31.2538  -41.4683 C   0  0  0  0  0  0
  -26.4819   31.7260  -40.5749 C   0  0  0  0  0  0
  -27.7006   30.7838  -40.4882 C   0  0  0  0  0  0
  -27.4541   29.4753  -39.7103 C   0  0  0  0  0  0
  -22.2808   31.4508  -47.2624 C   0  0  0  0  0  0
  -23.1297   31.3556  -46.0731 C   0  0  0  0  0  0
  -24.5114   31.2748  -46.2792 C   0  0  0  0  0  0
  -25.0421   31.2690  -47.5677 O   0  0  0  0  0  0
  -24.2466   31.2696  -48.7085 C   0  0  0  0  0  0
  -22.7992   31.4005  -48.5024 C   0  0  0  0  0  0
  -24.8306   31.1444  -49.7824 O   0  0  0  0  0  0
  -28.7627   28.7083  -39.4331 C   0  0  0  0  0  0
  -28.5464   27.3468  -38.7276 C   0  0  0  0  0  0
  -29.8060   26.4690  -38.6436 C   0  0  0  0  0  0
  -29.9530   25.7072  -37.5494 N   0  0  0  0  0  0
  -30.6127   26.4690  -39.5809 O   0  0  0  0  0  0
  -31.0136   24.7920  -37.5078 O   0  0  0  0  0  0
  -23.0351   31.1736  -42.7079 H   0  0  0  0  0  0
  -21.5449   31.3462  -44.6165 H   0  0  0  0  0  0
  -27.1578   30.6803  -46.3322 H   0  0  0  0  0  0
  -27.3369   30.5527  -44.6321 H   0  0  0  0  0  0
  -28.6146   32.4679  -45.2068 H   0  0  0  0  0  0
  -27.2058   33.0730  -44.4139 H   0  0  0  0  0  0
  -26.2124   33.5722  -46.7096 H   0  0  0  0  0  0
  -28.8503   34.9729  -46.0758 H   0  0  0  0  0  0
  -27.2831   35.3563  -45.3696 H   0  0  0  0  0  0
  -27.5571   35.6133  -47.0831 H   0  0  0  0  0  0
  -29.0183   32.8819  -47.7339 H   0  0  0  0  0  0
  -27.7509   33.6516  -48.6797 H   0  0  0  0  0  0
  -27.5496   32.0051  -48.1272 H   0  0  0  0  0  0
  -24.9061   30.3094  -41.1134 H   0  0  0  0  0  0
  -24.5355   32.0075  -41.3858 H   0  0  0  0  0  0
  -26.1021   31.9219  -39.5705 H   0  0  0  0  0  0
  -26.8174   32.6947  -40.9465 H   0  0  0  0  0  0
  -28.5095   31.3288  -40.0013 H   0  0  0  0  0  0
  -28.0616   30.5556  -41.4921 H   0  0  0  0  0  0
  -26.7628   28.8433  -40.2695 H   0  0  0  0  0  0
  -26.9657   29.7007  -38.7617 H   0  0  0  0  0  0
  -21.2112   31.5564  -47.1470 H   0  0  0  0  0  0
  -22.1383   31.4667  -49.3541 H   0  0  0  0  0  0
  -29.4127   29.3324  -38.8164 H   0  0  0  0  0  0
  -29.2809   28.5665  -40.3809 H   0  0  0  0  0  0
  -27.8048   26.7702  -39.2825 H   0  0  0  0  0  0
  -28.1280   27.5024  -37.7331 H   0  0  0  0  0  0
  -29.3373   25.6388  -36.7509 H   0  0  0  0  0  0
  -30.5773   23.9323  -37.5810 H   0  0  0  0  0  0
  1  2  2  0  0  0
  1  4  1  0  0  0
  1 28  1  0  0  0
  2 10  1  0  0  0
  2  3  1  0  0  0
  3 17  2  0  0  0
  3  5  1  0  0  0
  4 16  2  0  0  0
  4 29  1  0  0  0
  5  6  1  0  0  0
  5 30  1  0  0  0
  5 31  1  0  0  0
  6  7  1  0  0  0
  6 32  1  0  0  0
  6 33  1  0  0  0
  7  8  1  0  0  0
  7  9  1  0  0  0
  7 34  1  0  0  0
  8 35  1  0  0  0
  8 36  1  0  0  0
  8 37  1  0  0  0
  9 38  1  0  0  0
  9 39  1  0  0  0
  9 40  1  0  0  0
 10 11  1  0  0  0
 11 12  1  0  0  0
 11 41  1  0  0  0
 11 42  1  0  0  0
 12 13  1  0  0  0
 12 43  1  0  0  0
 12 44  1  0  0  0
 13 14  1  0  0  0
 13 45  1  0  0  0
 13 46  1  0  0  0
 14 22  1  0  0  0
 14 47  1  0  0  0
 14 48  1  0  0  0
 15 16  1  0  0  0
 15 20  2  0  0  0
 15 49  1  0  0  0
 16 17  1  0  0  0
 17 18  1  0  0  0
 18 19  1  0  0  0
 19 20  1  0  0  0
 19 21  2  0  0  0
 20 50  1  0  0  0
 22 23  1  0  0  0
 22 51  1  0  0  0
 22 52  1  0  0  0
 23 24  1  0  0  0
 23 53  1  0  0  0
 23 54  1  0  0  0
 24 25  1  0  0  0
 24 26  2  0  0  0
 25 27  1  0  0  0
 25 55  1  0  0  0
 27 56  1  0  0  0
M  END
> <s_m_entry_id>
53067

> <s_m_entry_name>
dock_pv.286

> <s_m_Source_Path>
/home/csk/Desktop/cluster/DUD-E-result/hdac8

> <s_m_Source_File>
dock_pv.maegz

> <i_m_Source_File_Index>
286

> <chembl_id>
CHEMBL1822046

> <chembl_pref_name>
None

> <i_lp_mmshare_version>
53161

> <i_f3d_flags>
0

> <r_lp_tautomer_probability>
1

> <s_lp_Force_Field>
OPLS_2005

> <r_lp_Energy>
22.108852

> <b_lp_Chiralities_Consistent>
1

> <s_lp_Variant>
CHEMBL3192_lig359-1

> <s_i_glide_gridfile>
glide-grid_3f07

> <i_i_glide_lignum>
378

> <i_i_glide_rotatable_bonds>
13

> <r_i_docking_score>
-7.27602931697434

> <r_i_glide_ligand_efficiency>
-0.269482567295346

> <r_i_glide_ligand_efficiency_sa>
-0.808447700997867

> <r_i_glide_ligand_efficiency_ln>
-1.69373967027336

> <r_i_glide_gscore>
-7.27602931697434

> <r_i_glide_lipo>
-1.09600179931732

> <r_i_glide_hbond>
-0.308148060398065

> <r_i_glide_metal>
-2.3

> <r_i_glide_rewards>
-0.994855859020596

> <r_i_glide_evdw>
-27.6885738372803

> <r_i_glide_ecoul>
-17.0551509857178

> <r_i_glide_erotb>
1.50967645439267

> <r_i_glide_esite>
-0.143998712909347

> <r_i_glide_emodel>
-69.1155691419397

> <r_i_glide_energy>
-44.743724822998

> <r_i_glide_einternal>
2.70408535003662

> <i_i_glide_confnum>
181

> <i_i_glide_posenum>
319

> <r_i_glide_eff_state_penalty>
0

> <s_user_duplicate_titles>
CHEMBL3192_lig359

> <s_m_subgroup_title>
dock_pv

> <s_m_subgroupid>
dock_pv

> <b_m_subgroup_collapsed>
1

$$$$
CHEMBL3192_lig851
                    3D
 Schrodinger Suite 2021-1.
 52 55  0  0  1  0            999 V2000
  -30.9132   25.4786  -36.0980 O   0  0  0  0  0  0
  -30.2118   26.4227  -36.8611 N   0  0  0  0  0  0
  -30.0932   26.2101  -38.1838 C   0  0  0  0  0  0
  -30.6131   25.2689  -38.7810 O   0  0  0  0  0  0
  -29.4033   27.2355  -38.9337 C   0  0  0  0  0  0
  -28.2850   27.8781  -38.5266 C   0  0  0  0  0  0
  -27.5859   28.9596  -39.2624 C   0  0  0  0  0  0
  -28.1513   29.5844  -40.3836 C   0  0  0  0  0  0
  -27.4863   30.5701  -41.1150 C   0  0  0  0  0  0
  -26.2151   30.9396  -40.6671 C   0  0  0  0  0  0
  -25.6214   30.3471  -39.5311 C   0  0  0  0  0  0
  -26.3149   29.3525  -38.8267 C   0  0  0  0  0  0
  -24.3785   30.8690  -39.2942 N   0  0  0  0  0  0
  -24.2071   31.7764  -40.2282 C   0  0  0  0  0  0
  -23.0337   32.7533  -40.2917 C   0  0  0  0  0  0
  -21.7262   32.3151  -39.5823 C   0  0  0  0  0  0
  -20.7267   31.4508  -40.3550 C   0  0  0  0  0  0
  -20.7860   31.2693  -41.7434 C   0  0  0  0  0  0
  -19.8175   30.5046  -42.3909 C   0  0  0  0  0  0
  -18.7924   29.9165  -41.6554 C   0  0  0  0  0  0
  -18.7181   30.0976  -40.2772 C   0  0  0  0  0  0
  -19.6815   30.8685  -39.6313 C   0  0  0  0  0  0
  -25.2775   31.8560  -41.1035 N   0  0  0  0  0  0
  -25.3852   32.7253  -42.2731 C   0  0  0  0  0  0
  -24.5478   32.2388  -43.4496 C   0  0  0  0  0  0
  -23.6001   33.0771  -44.0500 C   0  0  0  0  0  0
  -22.8175   32.5938  -45.1001 C   0  0  0  0  0  0
  -23.0148   31.2808  -45.5283 C   0  0  0  0  0  0
  -23.9335   30.4523  -44.9692 N   0  0  0  0  0  0
  -24.6846   30.9364  -43.9475 C   0  0  0  0  0  0
  -30.2228   25.0129  -35.6162 H   0  0  0  0  0  0
  -29.7618   27.1429  -36.3065 H   0  0  0  0  0  0
  -29.8424   27.4582  -39.8918 H   0  0  0  0  0  0
  -27.8418   27.6022  -37.5814 H   0  0  0  0  0  0
  -29.1358   29.3022  -40.7233 H   0  0  0  0  0  0
  -27.9419   31.0215  -41.9808 H   0  0  0  0  0  0
  -25.8474   28.8732  -37.9834 H   0  0  0  0  0  0
  -22.8135   33.0762  -41.3051 H   0  0  0  0  0  0
  -23.3705   33.6726  -39.8118 H   0  0  0  0  0  0
  -21.1817   33.2173  -39.2992 H   0  0  0  0  0  0
  -21.9690   31.8262  -38.6375 H   0  0  0  0  0  0
  -21.5701   31.7066  -42.3404 H   0  0  0  0  0  0
  -19.8661   30.3661  -43.4613 H   0  0  0  0  0  0
  -18.0462   29.3198  -42.1590 H   0  0  0  0  0  0
  -17.9168   29.6447  -39.7120 H   0  0  0  0  0  0
  -19.6158   31.0125  -38.5624 H   0  0  0  0  0  0
  -26.4293   32.7828  -42.5824 H   0  0  0  0  0  0
  -25.1029   33.7359  -41.9715 H   0  0  0  0  0  0
  -23.4570   34.0885  -43.6992 H   0  0  0  0  0  0
  -22.0734   33.2222  -45.5685 H   0  0  0  0  0  0
  -22.4184   30.8736  -46.3320 H   0  0  0  0  0  0
  -25.4009   30.2503  -43.5183 H   0  0  0  0  0  0
  1  2  1  0  0  0
  1 31  1  0  0  0
  2  3  1  0  0  0
  2 32  1  0  0  0
  3  4  2  0  0  0
  3  5  1  0  0  0
  5  6  2  0  0  0
  5 33  1  0  0  0
  6  7  1  0  0  0
  6 34  1  0  0  0
  7  8  2  0  0  0
  7 12  1  0  0  0
  8  9  1  0  0  0
  8 35  1  0  0  0
  9 10  2  0  0  0
  9 36  1  0  0  0
 10 11  1  0  0  0
 10 23  1  0  0  0
 11 12  2  0  0  0
 11 13  1  0  0  0
 12 37  1  0  0  0
 13 14  2  0  0  0
 14 15  1  0  0  0
 14 23  1  0  0  0
 15 16  1  0  0  0
 15 38  1  0  0  0
 15 39  1  0  0  0
 16 17  1  0  0  0
 16 40  1  0  0  0
 16 41  1  0  0  0
 17 18  2  0  0  0
 17 22  1  0  0  0
 18 19  1  0  0  0
 18 42  1  0  0  0
 19 20  2  0  0  0
 19 43  1  0  0  0
 20 21  1  0  0  0
 20 44  1  0  0  0
 21 22  2  0  0  0
 21 45  1  0  0  0
 22 46  1  0  0  0
 23 24  1  0  0  0
 24 25  1  0  0  0
 24 47  1  0  0  0
 24 48  1  0  0  0
 25 26  2  0  0  0
 25 30  1  0  0  0
 26 27  1  0  0  0
 26 49  1  0  0  0
 27 28  2  0  0  0
 27 50  1  0  0  0
 28 29  1  0  0  0
 28 51  1  0  0  0
 29 30  2  0  0  0
 30 52  1  0  0  0
M  END
> <s_m_entry_id>
53068

> <s_m_entry_name>
dock_pv.287

> <s_m_Source_Path>
/home/csk/Desktop/cluster/DUD-E-result/hdac8

> <s_m_Source_File>
dock_pv.maegz

> <i_m_Source_File_Index>
287

> <chembl_id>
CHEMBL3645375

> <chembl_pref_name>
None

> <i_lp_mmshare_version>
53161

> <i_f3d_flags>
0

> <r_lp_tautomer_probability>
1

> <s_lp_Force_Field>
OPLS_2005

> <r_lp_Energy>
28.711185

> <b_lp_Chiralities_Consistent>
1

> <s_lp_Variant>
CHEMBL3192_lig851-1

> <s_i_glide_gridfile>
glide-grid_3f07

> <i_i_glide_lignum>
909

> <i_i_glide_rotatable_bonds>
9

> <r_i_docking_score>
-7.27413392578149

> <r_i_glide_ligand_efficiency>
-0.242471130859383

> <r_i_glide_ligand_efficiency_sa>
-0.753414178707497

> <r_i_glide_ligand_efficiency_ln>
-1.65276248597475

> <r_i_glide_gscore>
-7.27413392578149

> <r_i_glide_lipo>
-1.11920870507265

> <r_i_glide_hbond>
-0.296068813468008

> <r_i_glide_metal>
-2.3

> <r_i_glide_rewards>
-0.911755305333729

> <r_i_glide_evdw>
-38.3963737487793

> <r_i_glide_ecoul>
-10.2548503875732

> <r_i_glide_erotb>
0.986840022063515

> <r_i_glide_esite>
-0.175894878395666

> <r_i_glide_emodel>
-72.2269304507275

> <r_i_glide_energy>
-48.6512241363525

> <r_i_glide_einternal>
6.81923055648804

> <i_i_glide_confnum>
11

> <i_i_glide_posenum>
172

> <r_i_glide_eff_state_penalty>
0

> <s_user_duplicate_titles>
CHEMBL3192_lig851

> <s_m_subgroup_title>
dock_pv

> <s_m_subgroupid>
dock_pv

> <b_m_subgroup_collapsed>
1

$$$$
CHEMBL3192_lig235
                    3D
 Schrodinger Suite 2021-1.
 44 47  0  0  1  0            999 V2000
  -23.5371   31.8920  -41.2669 C   0  0  0  0  0  0
  -22.8831   33.0905  -41.5735 C   0  0  0  0  0  0
  -22.9270   33.5935  -42.8710 C   0  0  0  0  0  0
  -23.6169   32.8954  -43.8601 C   0  0  0  0  0  0
  -24.2658   31.6987  -43.5643 C   0  0  0  0  0  0
  -24.2236   31.1953  -42.2673 C   0  0  0  0  0  0
  -23.4609   31.3654  -39.9541 N   0  0  0  0  0  0
  -20.4997   30.7865  -37.1373 C   0  0  0  0  0  0
  -20.0732   31.3234  -38.3518 C   0  0  0  0  0  0
  -20.9592   31.5764  -39.4026 C   0  0  0  0  0  0
  -21.8402   30.4690  -36.9191 C   0  0  0  0  0  0
  -24.0943   30.4690  -37.9810 N   0  0  0  0  0  0
  -22.7526   30.7119  -37.9565 C   0  0  0  0  0  0
  -22.3106   31.2690  -39.1810 C   0  0  0  0  0  0
  -24.4979   30.8690  -39.1610 C   0  0  0  0  0  0
  -25.9440   30.7987  -39.5490 C   0  0  0  0  0  0
  -26.5326   31.8799  -40.2111 C   0  0  0  0  0  0
  -27.8521   31.8112  -40.6407 C   0  0  0  0  0  0
  -28.6110   30.6725  -40.3810 C   0  0  0  0  0  0
  -28.0635   29.5929  -39.6799 C   0  0  0  0  0  0
  -26.7270   29.6690  -39.2575 C   0  0  0  0  0  0
  -28.9373   28.4315  -39.4203 C   0  0  0  0  0  0
  -28.8632   27.5523  -38.3954 C   0  0  0  0  0  0
  -29.8130   26.4690  -38.2468 C   0  0  0  0  0  0
  -29.8951   25.9771  -37.0030 N   0  0  0  0  0  0
  -30.5156   26.0690  -39.1810 O   0  0  0  0  0  0
  -30.7901   24.9195  -36.7650 O   0  0  0  0  0  0
  -22.3563   33.6425  -40.8071 H   0  0  0  0  0  0
  -22.4285   34.5221  -43.1078 H   0  0  0  0  0  0
  -23.6486   33.2867  -44.8664 H   0  0  0  0  0  0
  -24.7977   31.1640  -44.3374 H   0  0  0  0  0  0
  -24.7235   30.2643  -42.0430 H   0  0  0  0  0  0
  -19.7768   30.6119  -36.3533 H   0  0  0  0  0  0
  -19.0253   31.5534  -38.4804 H   0  0  0  0  0  0
  -20.6092   31.9901  -40.3361 H   0  0  0  0  0  0
  -22.1647   30.0479  -35.9805 H   0  0  0  0  0  0
  -25.9582   32.7740  -40.4105 H   0  0  0  0  0  0
  -28.2776   32.6431  -41.1807 H   0  0  0  0  0  0
  -29.6347   30.6361  -40.7257 H   0  0  0  0  0  0
  -26.2786   28.8407  -38.7278 H   0  0  0  0  0  0
  -29.7125   28.3026  -40.1618 H   0  0  0  0  0  0
  -28.1029   27.6462  -37.6336 H   0  0  0  0  0  0
  -29.3674   26.2591  -36.1857 H   0  0  0  0  0  0
  -30.2293   24.1364  -36.7810 H   0  0  0  0  0  0
  1  2  2  0  0  0
  1  7  1  0  0  0
  1  6  1  0  0  0
  2  3  1  0  0  0
  2 28  1  0  0  0
  3  4  2  0  0  0
  3 29  1  0  0  0
  4  5  1  0  0  0
  4 30  1  0  0  0
  5  6  2  0  0  0
  5 31  1  0  0  0
  6 32  1  0  0  0
  7 14  1  0  0  0
  7 15  1  0  0  0
  8  9  2  0  0  0
  8 11  1  0  0  0
  8 33  1  0  0  0
  9 10  1  0  0  0
  9 34  1  0  0  0
 10 14  2  0  0  0
 10 35  1  0  0  0
 11 13  2  0  0  0
 11 36  1  0  0  0
 12 13  1  0  0  0
 12 15  2  0  0  0
 13 14  1  0  0  0
 15 16  1  0  0  0
 16 17  2  0  0  0
 16 21  1  0  0  0
 17 18  1  0  0  0
 17 37  1  0  0  0
 18 19  2  0  0  0
 18 38  1  0  0  0
 19 20  1  0  0  0
 19 39  1  0  0  0
 20 21  2  0  0  0
 20 22  1  0  0  0
 21 40  1  0  0  0
 22 23  2  0  0  0
 22 41  1  0  0  0
 23 24  1  0  0  0
 23 42  1  0  0  0
 24 25  1  0  0  0
 24 26  2  0  0  0
 25 27  1  0  0  0
 25 43  1  0  0  0
 27 44  1  0  0  0
M  END
> <s_m_entry_id>
53069

> <s_m_entry_name>
dock_pv.288

> <s_m_Source_Path>
/home/csk/Desktop/cluster/DUD-E-result/hdac8

> <s_m_Source_File>
dock_pv.maegz

> <i_m_Source_File_Index>
288

> <chembl_id>
CHEMBL1094085

> <chembl_pref_name>
None

> <i_lp_mmshare_version>
53161

> <i_f3d_flags>
0

> <r_lp_tautomer_probability>
1

> <s_lp_Force_Field>
OPLS_2005

> <r_lp_Energy>
33.840795

> <b_lp_Chiralities_Consistent>
1

> <s_lp_Variant>
CHEMBL3192_lig235-1

> <s_i_glide_gridfile>
glide-grid_3f07

> <i_i_glide_lignum>
245

> <i_i_glide_rotatable_bonds>
6

> <r_i_docking_score>
-7.27290625281441

> <r_i_glide_ligand_efficiency>
-0.269366898252385

> <r_i_glide_ligand_efficiency_sa>
-0.808100693869367

> <r_i_glide_ligand_efficiency_ln>
-1.69301267242467

> <r_i_glide_gscore>
-7.27290625281441

> <r_i_glide_lipo>
-0.808705923278022

> <r_i_glide_hbond>
-0.355317708622765

> <r_i_glide_metal>
-2.3

> <r_i_glide_rewards>
-1.25277843113411

> <r_i_glide_evdw>
-33.3104400634766

> <r_i_glide_ecoul>
-10.143895149231

> <r_i_glide_erotb>
0.756918224825366

> <r_i_glide_esite>
-0.125916139046404

> <r_i_glide_emodel>
-65.4445674166211

> <r_i_glide_energy>
-43.4543352127075

> <r_i_glide_einternal>
2.56372547149658

> <i_i_glide_confnum>
56

> <i_i_glide_posenum>
353

> <r_i_glide_eff_state_penalty>
0

> <s_user_duplicate_titles>
CHEMBL3192_lig235,626575

> <s_m_subgroup_title>
dock_pv

> <s_m_subgroupid>
dock_pv

> <b_m_subgroup_collapsed>
1

$$$$
CHEMBL3192_lig849
                    3D
 Schrodinger Suite 2021-1.
 61 64  0  0  1  0            999 V2000
  -31.0929   24.6403  -36.9134 O   0  0  0  0  0  0
  -30.1471   25.6690  -37.0555 N   0  0  0  0  0  0
  -30.0645   26.2975  -38.2382 C   0  0  0  0  0  0
  -30.8298   26.0691  -39.1810 O   0  0  0  0  0  0
  -29.0190   27.2934  -38.3308 C   0  0  0  0  0  0
  -29.0149   28.2389  -39.2984 C   0  0  0  0  0  0
  -28.0260   29.3061  -39.5084 C   0  0  0  0  0  0
  -26.7166   29.1970  -39.0339 C   0  0  0  0  0  0
  -25.7462   30.1698  -39.2737 C   0  0  0  0  0  0
  -26.1599   31.3076  -39.9728 C   0  0  0  0  0  0
  -27.4951   31.4770  -40.4045 C   0  0  0  0  0  0
  -28.4310   30.4562  -40.1946 C   0  0  0  0  0  0
  -27.6751   32.7005  -40.9844 N   0  0  0  0  0  0
  -26.4927   33.2673  -40.9465 C   0  0  0  0  0  0
  -26.2705   34.6917  -41.4304 C   0  0  0  0  0  0
  -25.7948   34.7992  -42.8918 C   0  0  0  0  0  0
  -26.8173   34.3773  -43.9406 C   0  0  0  0  0  0
  -26.6974   33.1380  -44.5757 C   0  0  0  0  0  0
  -27.5946   32.7828  -45.5811 C   0  0  0  0  0  0
  -28.6128   33.6636  -45.9434 C   0  0  0  0  0  0
  -28.7493   34.8914  -45.2993 C   0  0  0  0  0  0
  -27.8494   35.2496  -44.2980 C   0  0  0  0  0  0
  -25.5120   32.4520  -40.3955 N   0  0  0  0  0  0
  -24.0817   32.7206  -40.2140 C   0  0  0  0  0  0
  -23.1999   31.8549  -41.1470 C   0  0  0  0  0  0
  -23.1193   32.3493  -42.5282 N   0  0  0  0  0  0
  -22.7131   31.2674  -43.4367 C   0  0  0  0  0  0
  -22.6229   31.7309  -44.9039 C   0  0  0  0  0  0
  -21.6870   32.9354  -45.0627 C   0  0  0  0  0  0
  -22.0978   34.0406  -44.0801 C   0  0  0  0  0  0
  -22.2284   33.5205  -42.6315 C   0  0  0  0  0  0
  -30.5717   23.8352  -37.0149 H   0  0  0  0  0  0
  -29.5601   25.7955  -36.2415 H   0  0  0  0  0  0
  -28.2439   27.2683  -37.5812 H   0  0  0  0  0  0
  -29.8128   28.2414  -40.0276 H   0  0  0  0  0  0
  -26.4248   28.3119  -38.4917 H   0  0  0  0  0  0
  -24.7302   30.0434  -38.9273 H   0  0  0  0  0  0
  -29.4457   30.5659  -40.5470 H   0  0  0  0  0  0
  -27.1851   35.2753  -41.3181 H   0  0  0  0  0  0
  -25.5583   35.2020  -40.7819 H   0  0  0  0  0  0
  -25.5077   35.8307  -43.1008 H   0  0  0  0  0  0
  -24.8803   34.2291  -43.0251 H   0  0  0  0  0  0
  -25.9033   32.4592  -44.2983 H   0  0  0  0  0  0
  -27.5022   31.8286  -46.0787 H   0  0  0  0  0  0
  -29.3079   33.3893  -46.7244 H   0  0  0  0  0  0
  -29.5434   35.5661  -45.5844 H   0  0  0  0  0  0
  -27.9446   36.2094  -43.8116 H   0  0  0  0  0  0
  -23.8824   33.7858  -40.3100 H   0  0  0  0  0  0
  -23.8356   32.4690  -39.1814 H   0  0  0  0  0  0
  -22.1935   31.7827  -40.7294 H   0  0  0  0  0  0
  -23.5874   30.8347  -41.1338 H   0  0  0  0  0  0
  -21.7514   30.8679  -43.1098 H   0  0  0  0  0  0
  -23.4380   30.4567  -43.3625 H   0  0  0  0  0  0
  -22.2564   30.9078  -45.5181 H   0  0  0  0  0  0
  -23.6210   31.9532  -45.2834 H   0  0  0  0  0  0
  -21.7103   33.3057  -46.0882 H   0  0  0  0  0  0
  -20.6585   32.6281  -44.8652 H   0  0  0  0  0  0
  -23.0294   34.5129  -44.3929 H   0  0  0  0  0  0
  -21.3564   34.8395  -44.1049 H   0  0  0  0  0  0
  -22.6002   34.3253  -41.9975 H   0  0  0  0  0  0
  -21.2426   33.2607  -42.2410 H   0  0  0  0  0  0
  1  2  1  0  0  0
  1 32  1  0  0  0
  2  3  1  0  0  0
  2 33  1  0  0  0
  3  4  2  0  0  0
  3  5  1  0  0  0
  5  6  2  0  0  0
  5 34  1  0  0  0
  6  7  1  0  0  0
  6 35  1  0  0  0
  7  8  2  0  0  0
  7 12  1  0  0  0
  8  9  1  0  0  0
  8 36  1  0  0  0
  9 10  2  0  0  0
  9 37  1  0  0  0
 10 11  1  0  0  0
 10 23  1  0  0  0
 11 12  2  0  0  0
 11 13  1  0  0  0
 12 38  1  0  0  0
 13 14  2  0  0  0
 14 15  1  0  0  0
 14 23  1  0  0  0
 15 16  1  0  0  0
 15 39  1  0  0  0
 15 40  1  0  0  0
 16 17  1  0  0  0
 16 41  1  0  0  0
 16 42  1  0  0  0
 17 18  2  0  0  0
 17 22  1  0  0  0
 18 19  1  0  0  0
 18 43  1  0  0  0
 19 20  2  0  0  0
 19 44  1  0  0  0
 20 21  1  0  0  0
 20 45  1  0  0  0
 21 22  2  0  0  0
 21 46  1  0  0  0
 22 47  1  0  0  0
 23 24  1  0  0  0
 24 25  1  0  0  0
 24 48  1  0  0  0
 24 49  1  0  0  0
 25 26  1  0  0  0
 25 50  1  0  0  0
 25 51  1  0  0  0
 26 27  1  0  0  0
 26 31  1  0  0  0
 27 28  1  0  0  0
 27 52  1  0  0  0
 27 53  1  0  0  0
 28 29  1  0  0  0
 28 54  1  0  0  0
 28 55  1  0  0  0
 29 30  1  0  0  0
 29 56  1  0  0  0
 29 57  1  0  0  0
 30 31  1  0  0  0
 30 58  1  0  0  0
 30 59  1  0  0  0
 31 60  1  0  0  0
 31 61  1  0  0  0
M  END
> <s_m_entry_id>
53070

> <s_m_entry_name>
dock_pv.289

> <s_m_Source_Path>
/home/csk/Desktop/cluster/DUD-E-result/hdac8

> <s_m_Source_File>
dock_pv.maegz

> <i_m_Source_File_Index>
289

> <chembl_id>
CHEMBL489332

> <chembl_pref_name>
None

> <i_lp_mmshare_version>
53161

> <i_f3d_flags>
0

> <r_lp_tautomer_probability>
1

> <s_lp_Force_Field>
OPLS_2005

> <r_lp_Energy>
40.069284

> <b_lp_Chiralities_Consistent>
1

> <s_lp_Variant>
CHEMBL3192_lig849-1

> <s_i_glide_gridfile>
glide-grid_3f07

> <i_i_glide_lignum>
906

> <i_i_glide_rotatable_bonds>
10

> <r_i_docking_score>
-7.27258349333957

> <r_i_glide_ligand_efficiency>
-0.234599467527083

> <r_i_glide_ligand_efficiency_sa>
-0.736966227507323

> <r_i_glide_ligand_efficiency_ln>
-1.64019045566552

> <r_i_glide_gscore>
-7.27258349333957

> <r_i_glide_lipo>
-1.01380738179638

> <r_i_glide_hbond>
-0.243299320851976

> <r_i_glide_metal>
-2.3

> <r_i_glide_rewards>
-0.769004211871964

> <r_i_glide_evdw>
-34.9169273376465

> <r_i_glide_ecoul>
-13.3349761962891

> <r_i_glide_erotb>
1.01602799562634

> <r_i_glide_esite>
-0.216407778119898

> <r_i_glide_emodel>
-73.0732432915834

> <r_i_glide_energy>
-48.2519035339355

> <r_i_glide_einternal>
3.57473206520081

> <i_i_glide_confnum>
18

> <i_i_glide_posenum>
201

> <r_i_glide_eff_state_penalty>
0

> <s_user_duplicate_titles>
CHEMBL3192_lig849

> <s_m_subgroup_title>
dock_pv

> <s_m_subgroupid>
dock_pv

> <b_m_subgroup_collapsed>
1

$$$$
CHEMBL3192_lig641
                    3D
 Schrodinger Suite 2021-1.
 53 56  0  0  1  0            999 V2000
  -30.3830   26.0890  -38.1129 C   0  0  0  0  0  0
  -29.3511   27.2048  -37.8922 C   0  0  0  0  0  0
  -28.6317   27.6353  -39.1806 C   0  0  0  0  0  0
  -27.5351   28.6867  -38.9598 C   0  0  0  0  0  0
  -26.9749   29.1745  -40.3080 C   0  0  0  0  0  0
  -31.0133   26.0689  -39.1809 O   0  0  0  0  0  0
  -30.5368   25.2146  -37.1058 N   0  0  0  0  0  0
  -31.4139   24.1371  -37.2814 O   0  0  0  0  0  0
  -24.2052   31.3151  -40.9404 N   0  0  0  0  0  0
  -25.1762   30.4658  -41.3025 N   0  0  0  0  0  0
  -25.7948   30.1122  -40.1988 C   0  0  0  0  0  0
  -25.1880   30.6990  -39.0800 C   0  0  0  0  0  0
  -24.1428   31.4503  -39.5808 C   0  0  0  0  0  0
  -23.2919   31.9144  -41.9217 C   0  0  0  0  0  0
  -23.6713   31.8788  -43.4090 C   0  0  0  0  0  0
  -22.6594   31.7578  -44.3637 C   0  0  0  0  0  0
  -22.9683   31.7411  -45.7207 C   0  0  0  0  0  0
  -24.3048   31.7983  -46.1502 C   0  0  0  0  0  0
  -25.3131   31.9177  -45.1856 C   0  0  0  0  0  0
  -24.9977   31.9959  -43.8342 C   0  0  0  0  0  0
  -24.6208   31.7750  -47.5418 N   0  0  0  0  0  0
  -23.7845   31.2612  -48.5178 C   0  0  0  0  0  0
  -24.3781   31.2810  -49.7540 C   0  0  0  0  0  0
  -25.6466   31.9032  -49.5809 C   0  0  0  0  0  0
  -26.6925   32.1989  -50.4649 C   0  0  0  0  0  0
  -27.8114   32.8738  -49.9907 C   0  0  0  0  0  0
  -27.8949   33.2717  -48.6624 C   0  0  0  0  0  0
  -26.8810   32.9956  -47.7454 C   0  0  0  0  0  0
  -25.7608   32.2692  -48.1972 C   0  0  0  0  0  0
  -29.8133   28.0668  -37.4163 H   0  0  0  0  0  0
  -28.6130   26.8690  -37.1816 H   0  0  0  0  0  0
  -28.1657   26.7581  -39.6319 H   0  0  0  0  0  0
  -29.3543   28.0283  -39.8975 H   0  0  0  0  0  0
  -27.9286   29.5293  -38.3881 H   0  0  0  0  0  0
  -26.7370   28.2506  -38.3579 H   0  0  0  0  0  0
  -26.6775   28.3079  -40.8987 H   0  0  0  0  0  0
  -27.7738   29.6591  -40.8710 H   0  0  0  0  0  0
  -30.0246   25.1763  -36.2345 H   0  0  0  0  0  0
  -30.8272   23.3915  -37.4652 H   0  0  0  0  0  0
  -25.4696   30.5889  -38.0428 H   0  0  0  0  0  0
  -23.3966   32.0709  -39.1051 H   0  0  0  0  0  0
  -23.1516   32.9587  -41.6393 H   0  0  0  0  0  0
  -22.3284   31.4196  -41.7823 H   0  0  0  0  0  0
  -21.6248   31.6886  -44.0600 H   0  0  0  0  0  0
  -22.1451   31.6793  -46.4167 H   0  0  0  0  0  0
  -26.3573   31.9118  -45.4464 H   0  0  0  0  0  0
  -25.8003   32.1163  -43.1215 H   0  0  0  0  0  0
  -22.8236   30.8479  -48.2492 H   0  0  0  0  0  0
  -23.9416   30.9051  -50.6672 H   0  0  0  0  0  0
  -26.6322   31.9152  -51.5026 H   0  0  0  0  0  0
  -28.6195   33.1089  -50.6677 H   0  0  0  0  0  0
  -28.7727   33.8124  -48.3345 H   0  0  0  0  0  0
  -26.9811   33.3586  -46.7366 H   0  0  0  0  0  0
  1  2  1  0  0  0
  1  6  2  0  0  0
  1  7  1  0  0  0
  2  3  1  0  0  0
  2 30  1  0  0  0
  2 31  1  0  0  0
  3  4  1  0  0  0
  3 32  1  0  0  0
  3 33  1  0  0  0
  4  5  1  0  0  0
  4 34  1  0  0  0
  4 35  1  0  0  0
  5 11  1  0  0  0
  5 36  1  0  0  0
  5 37  1  0  0  0
  7  8  1  0  0  0
  7 38  1  0  0  0
  8 39  1  0  0  0
  9 10  1  0  0  0
  9 13  1  0  0  0
  9 14  1  0  0  0
 10 11  2  0  0  0
 11 12  1  0  0  0
 12 13  2  0  0  0
 12 40  1  0  0  0
 13 41  1  0  0  0
 14 15  1  0  0  0
 14 42  1  0  0  0
 14 43  1  0  0  0
 15 16  1  0  0  0
 15 20  2  0  0  0
 16 17  2  0  0  0
 16 44  1  0  0  0
 17 18  1  0  0  0
 17 45  1  0  0  0
 18 19  2  0  0  0
 18 21  1  0  0  0
 19 20  1  0  0  0
 19 46  1  0  0  0
 20 47  1  0  0  0
 21 22  1  0  0  0
 21 29  1  0  0  0
 22 23  2  0  0  0
 22 48  1  0  0  0
 23 24  1  0  0  0
 23 49  1  0  0  0
 24 25  1  0  0  0
 24 29  2  0  0  0
 25 26  2  0  0  0
 25 50  1  0  0  0
 26 27  1  0  0  0
 26 51  1  0  0  0
 27 28  2  0  0  0
 27 52  1  0  0  0
 28 29  1  0  0  0
 28 53  1  0  0  0
M  END
> <s_m_entry_id>
53071

> <s_m_entry_name>
dock_pv.290

> <s_m_Source_Path>
/home/csk/Desktop/cluster/DUD-E-result/hdac8

> <s_m_Source_File>
dock_pv.maegz

> <i_m_Source_File_Index>
290

> <chembl_id>
CHEMBL3335298

> <chembl_pref_name>
None

> <i_lp_mmshare_version>
53161

> <i_f3d_flags>
0

> <r_lp_tautomer_probability>
1

> <s_lp_Force_Field>
OPLS_2005

> <r_lp_Energy>
17.956909

> <b_lp_Chiralities_Consistent>
1

> <s_lp_Variant>
CHEMBL3192_lig641-1

> <s_i_glide_gridfile>
glide-grid_3f07

> <i_i_glide_lignum>
667

> <i_i_glide_rotatable_bonds>
10

> <r_i_docking_score>
-7.26218772350724

> <r_i_glide_ligand_efficiency>
-0.250420266327836

> <r_i_glide_ligand_efficiency_sa>
-0.769370396868175

> <r_i_glide_ligand_efficiency_ln>
-1.66285683549166

> <r_i_glide_gscore>
-7.26218772350724

> <r_i_glide_lipo>
-0.97912324176537

> <r_i_glide_hbond>
-0.228739272945296

> <r_i_glide_metal>
-2.3

> <r_i_glide_rewards>
-0.760352005330318

> <r_i_glide_evdw>
-36.1547698974609

> <r_i_glide_ecoul>
-14.9258708953857

> <r_i_glide_erotb>
1.16206052041606

> <r_i_glide_esite>
-0.109414594701415

> <r_i_glide_emodel>
-74.8125902416389

> <r_i_glide_energy>
-51.0806407928467

> <r_i_glide_einternal>
6.34191799163818

> <i_i_glide_confnum>
34

> <i_i_glide_posenum>
356

> <r_i_glide_eff_state_penalty>
0

> <s_user_duplicate_titles>
CHEMBL3192_lig641

> <s_m_subgroup_title>
dock_pv

> <s_m_subgroupid>
dock_pv

> <b_m_subgroup_collapsed>
1

$$$$
CHEMBL3192_lig930
                    3D
 Schrodinger Suite 2021-1.
 20 21  0  0  1  0            999 V2000
  -30.6828   24.9439  -37.3638 O   0  0  0  0  0  0
  -29.8130   26.0379  -37.5183 N   0  0  0  0  0  0
  -29.8130   26.6883  -38.6920 C   0  0  0  0  0  0
  -28.8255   27.7244  -38.8544 C   0  0  0  0  0  0
  -27.5368   27.6690  -38.3810 C   0  0  0  0  0  0
  -26.8721   28.7756  -38.7513 O   0  0  0  0  0  0
  -27.7797   29.4384  -39.4974 C   0  0  0  0  0  0
  -27.3688   30.7054  -40.0725 C   0  0  0  0  0  0
  -28.1333   31.6224  -40.7810 C   0  0  0  0  0  0
  -27.4170   32.7583  -41.1810 C   0  0  0  0  0  0
  -26.0928   32.7218  -40.7783 C   0  0  0  0  0  0
  -25.7242   31.2682  -39.9163 S   0  0  0  0  0  0
  -28.9435   28.8242  -39.5948 N   0  0  0  0  0  0
  -30.6346   26.4692  -39.5810 O   0  0  0  0  0  0
  -30.1013   24.1733  -37.4147 H   0  0  0  0  0  0
  -29.2121   26.1978  -36.7195 H   0  0  0  0  0  0
  -27.0130   26.9667  -37.7613 H   0  0  0  0  0  0
  -29.1781   31.4635  -40.9995 H   0  0  0  0  0  0
  -27.8440   33.5775  -41.7405 H   0  0  0  0  0  0
  -25.3249   33.4666  -40.9332 H   0  0  0  0  0  0
  1  2  1  0  0  0
  1 15  1  0  0  0
  2  3  1  0  0  0
  2 16  1  0  0  0
  3  4  1  0  0  0
  3 14  2  0  0  0
  4  5  2  0  0  0
  4 13  1  0  0  0
  5  6  1  0  0  0
  5 17  1  0  0  0
  6  7  1  0  0  0
  7  8  1  0  0  0
  7 13  2  0  0  0
  8  9  2  0  0  0
  8 12  1  0  0  0
  9 10  1  0  0  0
  9 18  1  0  0  0
 10 11  2  0  0  0
 10 19  1  0  0  0
 11 12  1  0  0  0
 11 20  1  0  0  0
M  END
> <s_m_entry_id>
53072

> <s_m_entry_name>
dock_pv.291

> <s_m_Source_Path>
/home/csk/Desktop/cluster/DUD-E-result/hdac8

> <s_m_Source_File>
dock_pv.maegz

> <i_m_Source_File_Index>
291

> <chembl_id>
CHEMBL3770566

> <chembl_pref_name>
None

> <i_lp_mmshare_version>
53161

> <i_f3d_flags>
0

> <r_lp_tautomer_probability>
1

> <s_lp_Force_Field>
OPLS_2005

> <r_lp_Energy>
12.521222

> <b_lp_Chiralities_Consistent>
1

> <s_lp_Variant>
CHEMBL3192_lig930-1

> <s_i_glide_gridfile>
glide-grid_3f07

> <i_i_glide_lignum>
991

> <i_i_glide_rotatable_bonds>
4

> <r_i_docking_score>
-7.26203184655697

> <r_i_glide_ligand_efficiency>
-0.518716560468355

> <r_i_glide_ligand_efficiency_sa>
-1.25018070441262

> <r_i_glide_ligand_efficiency_ln>
-1.9955805003283

> <r_i_glide_gscore>
-7.26203184655697

> <r_i_glide_lipo>
-0.526611587623843

> <r_i_glide_hbond>
-0.35210792726945

> <r_i_glide_metal>
-2.3

> <r_i_glide_rewards>
-2.1877198177518

> <r_i_glide_evdw>
-14.0811719894409

> <r_i_glide_ecoul>
-14.3511934280396

> <r_i_glide_erotb>
1.12713325057157

> <r_i_glide_esite>
-0.165988150805475

> <r_i_glide_emodel>
-43.7672085879957

> <r_i_glide_energy>
-28.4323654174805

> <r_i_glide_einternal>
2.98896074295044

> <i_i_glide_confnum>
7

> <i_i_glide_posenum>
363

> <r_i_glide_eff_state_penalty>
0

> <s_user_duplicate_titles>
CHEMBL3192_lig930

> <s_m_subgroup_title>
dock_pv

> <s_m_subgroupid>
dock_pv

> <b_m_subgroup_collapsed>
1

$$$$
CHEMBL3192_lig801
                    3D
 Schrodinger Suite 2021-1.
 45 47  0  0  1  0            999 V2000
  -30.9512   24.8688  -38.0714 O   0  0  0  0  0  0
  -29.8967   25.7218  -37.6982 N   0  0  0  0  0  0
  -29.6099   26.7400  -38.5202 C   0  0  0  0  0  0
  -30.2129   26.8690  -39.5813 O   0  0  0  0  0  0
  -28.6017   27.7957  -38.0297 C   0  0  0  0  0  0
  -28.0082   28.8142  -39.0123 C   0  0  0  0  0  0
  -26.6698   29.1853  -38.8441 C   0  0  0  0  0  0
  -26.0745   30.1163  -39.6873 C   0  0  0  0  0  0
  -26.8235   30.7109  -40.7006 C   0  0  0  0  0  0
  -26.1555   31.6781  -41.6719 C   0  0  0  0  0  0
  -25.1065   31.0065  -42.5904 C   0  0  0  0  0  0
  -25.6708   29.9304  -43.5481 C   0  0  0  0  0  0
  -26.4237   30.4809  -44.7809 C   0  0  0  0  0  0
  -25.5777   30.9494  -45.9669 C   0  0  0  0  0  0
  -24.1667   31.0215  -45.9179 C   0  0  0  0  0  0
  -23.4189   31.3819  -47.0469 C   0  0  0  0  0  0
  -24.1163   31.6800  -48.2105 C   0  0  0  0  0  0
  -23.6292   32.0018  -49.4375 O   0  0  0  0  0  0
  -24.7468   32.3961  -50.1870 C   0  0  0  0  0  0
  -25.8886   31.9155  -49.5298 O   0  0  0  0  0  0
  -25.4801   31.6297  -48.2657 C   0  0  0  0  0  0
  -26.2452   31.2687  -47.1631 C   0  0  0  0  0  0
  -28.1789   30.4059  -40.8226 C   0  0  0  0  0  0
  -28.7716   29.4717  -39.9806 C   0  0  0  0  0  0
  -31.6315   25.0396  -37.4125 H   0  0  0  0  0  0
  -29.5109   25.5186  -36.7850 H   0  0  0  0  0  0
  -29.1092   28.3761  -37.2582 H   0  0  0  0  0  0
  -27.7654   27.2689  -37.5813 H   0  0  0  0  0  0
  -26.0727   28.7385  -38.0647 H   0  0  0  0  0  0
  -25.0296   30.3617  -39.5594 H   0  0  0  0  0  0
  -26.9072   32.1936  -42.2710 H   0  0  0  0  0  0
  -25.6727   32.4600  -41.0827 H   0  0  0  0  0  0
  -24.5935   31.7798  -43.1623 H   0  0  0  0  0  0
  -24.3340   30.5528  -41.9679 H   0  0  0  0  0  0
  -24.8748   29.2682  -43.8878 H   0  0  0  0  0  0
  -26.3360   29.2779  -42.9832 H   0  0  0  0  0  0
  -27.0591   29.6816  -45.1642 H   0  0  0  0  0  0
  -27.0986   31.2838  -44.4852 H   0  0  0  0  0  0
  -23.6267   30.7807  -45.0160 H   0  0  0  0  0  0
  -22.3398   31.4111  -47.0067 H   0  0  0  0  0  0
  -24.7865   33.4866  -50.2257 H   0  0  0  0  0  0
  -24.6906   32.0112  -51.2050 H   0  0  0  0  0  0
  -27.3218   31.2083  -47.2322 H   0  0  0  0  0  0
  -28.7790   30.8761  -41.5810 H   0  0  0  0  0  0
  -29.8215   29.2653  -40.1004 H   0  0  0  0  0  0
  1  2  1  0  0  0
  1 25  1  0  0  0
  2  3  1  0  0  0
  2 26  1  0  0  0
  3  4  2  0  0  0
  3  5  1  0  0  0
  5  6  1  0  0  0
  5 27  1  0  0  0
  5 28  1  0  0  0
  6  7  2  0  0  0
  6 24  1  0  0  0
  7  8  1  0  0  0
  7 29  1  0  0  0
  8  9  2  0  0  0
  8 30  1  0  0  0
  9 10  1  0  0  0
  9 23  1  0  0  0
 10 11  1  0  0  0
 10 31  1  0  0  0
 10 32  1  0  0  0
 11 12  1  0  0  0
 11 33  1  0  0  0
 11 34  1  0  0  0
 12 13  1  0  0  0
 12 35  1  0  0  0
 12 36  1  0  0  0
 13 14  1  0  0  0
 13 37  1  0  0  0
 13 38  1  0  0  0
 14 15  2  0  0  0
 14 22  1  0  0  0
 15 16  1  0  0  0
 15 39  1  0  0  0
 16 17  2  0  0  0
 16 40  1  0  0  0
 17 18  1  0  0  0
 17 21  1  0  0  0
 18 19  1  0  0  0
 19 20  1  0  0  0
 19 41  1  0  0  0
 19 42  1  0  0  0
 20 21  1  0  0  0
 21 22  2  0  0  0
 22 43  1  0  0  0
 23 24  2  0  0  0
 23 44  1  0  0  0
 24 45  1  0  0  0
M  END
> <s_m_entry_id>
53073

> <s_m_entry_name>
dock_pv.292

> <s_m_Source_Path>
/home/csk/Desktop/cluster/DUD-E-result/hdac8

> <s_m_Source_File>
dock_pv.maegz

> <i_m_Source_File_Index>
292

> <chembl_id>
CHEMBL3698524

> <chembl_pref_name>
None

> <i_lp_mmshare_version>
53161

> <i_f3d_flags>
0

> <r_lp_tautomer_probability>
1

> <s_lp_Force_Field>
OPLS_2005

> <r_lp_Energy>
28.413724

> <b_lp_Chiralities_Consistent>
1

> <s_lp_Variant>
CHEMBL3192_lig801-1

> <s_i_glide_gridfile>
glide-grid_3f07

> <i_i_glide_lignum>
855

> <i_i_glide_rotatable_bonds>
9

> <r_i_docking_score>
-7.26035356934477

> <r_i_glide_ligand_efficiency>
-0.302514732056032

> <r_i_glide_ligand_efficiency_sa>
-0.872603483714552

> <r_i_glide_ligand_efficiency_ln>
-1.73773576506077

> <r_i_glide_gscore>
-7.26035356934477

> <r_i_glide_lipo>
-1.705108475703

> <r_i_glide_hbond>
-0.32

> <r_i_glide_metal>
-1.64154331037698

> <r_i_glide_rewards>
-1.4852725655607

> <r_i_glide_evdw>
-28.3702163696289

> <r_i_glide_ecoul>
-11.5820722579956

> <r_i_glide_erotb>
1.22577580672513

> <r_i_glide_esite>
-0.178383367248434

> <r_i_glide_emodel>
-56.6690016612265

> <r_i_glide_energy>
-39.9522886276245

> <r_i_glide_einternal>
8.33837604522705

> <i_i_glide_confnum>
3

> <i_i_glide_posenum>
369

> <r_i_glide_eff_state_penalty>
0

> <s_user_duplicate_titles>
CHEMBL3192_lig801

> <s_m_subgroup_title>
dock_pv

> <s_m_subgroupid>
dock_pv

> <b_m_subgroup_collapsed>
1

$$$$
CHEMBL3192_lig303
                    3D
 Schrodinger Suite 2021-1.
 26 26  0  0  1  0            999 V2000
  -28.8959   27.5821  -38.1927 C   0  0  0  0  0  0
  -29.9082   26.4690  -38.4998 C   0  0  0  0  0  0
  -30.5125   26.4690  -39.5808 O   0  0  0  0  0  0
  -30.1350   25.5641  -37.5346 N   0  0  0  0  0  0
  -31.0130   24.5026  -37.8063 O   0  0  0  0  0  0
  -28.2728   28.2652  -39.4329 C   0  0  0  0  0  0
  -27.5056   29.5523  -39.0636 C   0  0  0  0  0  0
  -26.6171   30.1259  -40.1638 C   0  0  0  0  0  0
  -25.4014   30.7209  -39.8123 C   0  0  0  0  0  0
  -24.5805   31.2690  -40.7936 C   0  0  0  0  0  0
  -24.9775   31.2259  -42.1281 C   0  0  0  0  0  0
  -26.1910   30.6444  -42.4886 C   0  0  0  0  0  0
  -27.0130   30.0992  -41.5058 C   0  0  0  0  0  0
  -29.4130   28.3239  -37.5818 H   0  0  0  0  0  0
  -28.0878   27.1893  -37.5810 H   0  0  0  0  0  0
  -29.6920   25.4975  -36.6274 H   0  0  0  0  0  0
  -30.4313   23.7293  -37.8690 H   0  0  0  0  0  0
  -27.5936   27.5627  -39.9214 H   0  0  0  0  0  0
  -29.0456   28.5184  -40.1594 H   0  0  0  0  0  0
  -28.2146   30.3302  -38.7804 H   0  0  0  0  0  0
  -26.8880   29.3513  -38.1859 H   0  0  0  0  0  0
  -25.0881   30.7666  -38.7790 H   0  0  0  0  0  0
  -23.6441   31.7322  -40.5169 H   0  0  0  0  0  0
  -24.3415   31.6557  -42.8882 H   0  0  0  0  0  0
  -26.4970   30.6263  -43.5244 H   0  0  0  0  0  0
  -27.9591   29.6690  -41.7954 H   0  0  0  0  0  0
  1  6  1  0  0  0
  1  2  1  0  0  0
  1 14  1  0  0  0
  1 15  1  0  0  0
  2  4  1  0  0  0
  2  3  2  0  0  0
  4  5  1  0  0  0
  4 16  1  0  0  0
  5 17  1  0  0  0
  6  7  1  0  0  0
  6 18  1  0  0  0
  6 19  1  0  0  0
  7  8  1  0  0  0
  7 20  1  0  0  0
  7 21  1  0  0  0
  8  9  2  0  0  0
  8 13  1  0  0  0
  9 10  1  0  0  0
  9 22  1  0  0  0
 10 11  2  0  0  0
 10 23  1  0  0  0
 11 12  1  0  0  0
 11 24  1  0  0  0
 12 13  2  0  0  0
 12 25  1  0  0  0
 13 26  1  0  0  0
M  END
> <s_m_entry_id>
53074

> <s_m_entry_name>
dock_pv.293

> <s_m_Source_Path>
/home/csk/Desktop/cluster/DUD-E-result/hdac8

> <s_m_Source_File>
dock_pv.maegz

> <i_m_Source_File_Index>
293

> <chembl_id>
CHEMBL55895

> <chembl_pref_name>
PHENYLBUTYRYLHYDROXAMIC ACID

> <i_lp_mmshare_version>
53161

> <i_f3d_flags>
0

> <r_lp_tautomer_probability>
1

> <s_lp_Force_Field>
OPLS_2005

> <r_lp_Energy>
17.386142

> <b_lp_Chiralities_Consistent>
1

> <s_lp_Variant>
CHEMBL3192_lig303-1

> <s_i_glide_gridfile>
glide-grid_3f07

> <i_i_glide_lignum>
322

> <i_i_glide_rotatable_bonds>
6

> <r_i_docking_score>
-7.25935867377518

> <r_i_glide_ligand_efficiency>
-0.558412205675014

> <r_i_glide_ligand_efficiency_sa>
-1.31301398812771

> <r_i_glide_ligand_efficiency_ln>
-2.03631466982305

> <r_i_glide_gscore>
-7.25935867377518

> <r_i_glide_lipo>
-0.840469119805517

> <r_i_glide_hbond>
-0.304

> <r_i_glide_metal>
-2.3

> <r_i_glide_rewards>
-2.33670713848616

> <r_i_glide_evdw>
-17.1335887908936

> <r_i_glide_ecoul>
-16.2805881500244

> <r_i_glide_erotb>
1.95843926901831

> <r_i_glide_esite>
-0.13785402245347

> <r_i_glide_emodel>
-52.2069548907502

> <r_i_glide_energy>
-33.414176940918

> <r_i_glide_einternal>
3.33954739570618

> <i_i_glide_confnum>
14

> <i_i_glide_posenum>
385

> <r_i_glide_eff_state_penalty>
0

> <s_user_duplicate_titles>
CHEMBL3192_lig303

> <s_m_subgroup_title>
dock_pv

> <s_m_subgroupid>
dock_pv

> <b_m_subgroup_collapsed>
1

$$$$
CHEMBL3192_lig370
                    3D
 Schrodinger Suite 2021-1.
 54 55  0  0  1  0            999 V2000
  -27.3905   32.0707  -48.3096 C   0  0  0  0  0  0
  -27.4129   31.3007  -46.6631 S   0  0  0  0  0  0
  -25.9546   32.1366  -45.9665 C   0  0  0  0  0  0
  -24.8551   32.2330  -47.4020 S   0  0  0  0  0  0
  -26.1334   32.9343  -48.4697 C   0  0  0  0  0  0
  -26.2344   31.7908  -43.5718 C   0  0  2  0  0  0
  -25.3752   31.3742  -44.7831 C   0  0  0  0  0  0
  -26.2887   33.4896  -45.3127 C   0  0  0  0  0  0
  -26.7076   33.1486  -43.9428 N   0  0  0  0  0  0
  -25.4041   31.7256  -42.2662 C   0  0  0  0  0  0
  -25.9463   31.0264  -41.2576 N   0  0  0  0  0  0
  -24.3246   32.3115  -42.1777 O   0  0  0  0  0  0
  -25.4157   30.9903  -39.8982 C   0  0  0  0  0  0
  -26.5335   30.8037  -38.8546 C   0  0  0  0  0  0
  -26.8759   29.3400  -38.5266 C   0  0  0  0  0  0
  -27.7190   28.5975  -39.5768 C   0  0  0  0  0  0
  -27.9778   27.1368  -39.1443 C   0  0  0  0  0  0
  -29.4139   26.8038  -38.7238 C   0  0  0  0  0  0
  -29.7151   26.8625  -37.4159 N   0  0  0  0  0  0
  -30.2380   26.4707  -39.5805 O   0  0  0  0  0  0
  -30.9783   26.4199  -36.9883 O   0  0  0  0  0  0
  -27.4126   33.9875  -43.1291 C   0  0  0  0  0  0
  -27.8529   35.3653  -43.6705 C   0  0  0  0  0  0
  -27.7333   33.6690  -41.9801 O   0  0  0  0  0  0
  -28.8645   36.1425  -42.7946 C   0  0  0  0  0  0
  -30.1886   35.5347  -42.8110 N   0  0  0  0  0  0
  -27.3869   31.2554  -49.0346 H   0  0  0  0  0  0
  -28.3064   32.6443  -48.4635 H   0  0  0  0  0  0
  -25.7855   32.9530  -49.5030 H   0  0  0  0  0  0
  -26.3126   33.9639  -48.1582 H   0  0  0  0  0  0
  -27.0766   31.1094  -43.4493 H   0  0  0  0  0  0
  -24.3324   31.6771  -44.6574 H   0  0  0  0  0  0
  -25.3506   30.2932  -44.9257 H   0  0  0  0  0  0
  -25.3897   34.1067  -45.2674 H   0  0  0  0  0  0
  -27.0562   34.0030  -45.8910 H   0  0  0  0  0  0
  -26.8321   30.5697  -41.4043 H   0  0  0  0  0  0
  -24.8835   31.9168  -39.6641 H   0  0  0  0  0  0
  -24.6628   30.2045  -39.8150 H   0  0  0  0  0  0
  -27.4319   31.3292  -39.1810 H   0  0  0  0  0  0
  -26.2133   31.2897  -37.9309 H   0  0  0  0  0  0
  -27.4130   29.2821  -37.5813 H   0  0  0  0  0  0
  -25.9405   28.8085  -38.3584 H   0  0  0  0  0  0
  -27.1855   28.5956  -40.5283 H   0  0  0  0  0  0
  -28.6505   29.1373  -39.7580 H   0  0  0  0  0  0
  -27.3247   26.8690  -38.3179 H   0  0  0  0  0  0
  -27.6891   26.4691  -39.9562 H   0  0  0  0  0  0
  -29.1049   27.1424  -36.6495 H   0  0  0  0  0  0
  -30.7879   25.6052  -36.5130 H   0  0  0  0  0  0
  -26.9515   35.9695  -43.7698 H   0  0  0  0  0  0
  -28.2767   35.2559  -44.6678 H   0  0  0  0  0  0
  -28.5093   36.2193  -41.7649 H   0  0  0  0  0  0
  -28.9508   37.1651  -43.1660 H   0  0  0  0  0  0
  -30.8445   36.1732  -42.3827 H   0  0  0  0  0  0
  -30.4957   35.4333  -43.7690 H   0  0  0  0  0  0
  1  2  1  0  0  0
  1  5  1  0  0  0
  1 27  1  0  0  0
  1 28  1  0  0  0
  2  3  1  0  0  0
  3  4  1  0  0  0
  3  7  1  0  0  0
  3  8  1  0  0  0
  4  5  1  0  0  0
  5 29  1  0  0  0
  5 30  1  0  0  0
  6  9  1  0  0  0
  6 10  1  0  0  0
  6  7  1  0  0  0
  6 31  1  0  0  0
  7 32  1  0  0  0
  7 33  1  0  0  0
  8  9  1  0  0  0
  8 34  1  0  0  0
  8 35  1  0  0  0
  9 22  1  0  0  0
 10 11  1  0  0  0
 10 12  2  0  0  0
 11 13  1  0  0  0
 11 36  1  0  0  0
 13 14  1  0  0  0
 13 37  1  0  0  0
 13 38  1  0  0  0
 14 15  1  0  0  0
 14 39  1  0  0  0
 14 40  1  0  0  0
 15 16  1  0  0  0
 15 41  1  0  0  0
 15 42  1  0  0  0
 16 17  1  0  0  0
 16 43  1  0  0  0
 16 44  1  0  0  0
 17 18  1  0  0  0
 17 45  1  0  0  0
 17 46  1  0  0  0
 18 19  1  0  0  0
 18 20  2  0  0  0
 19 21  1  0  0  0
 19 47  1  0  0  0
 21 48  1  0  0  0
 22 23  1  0  0  0
 22 24  2  0  0  0
 23 25  1  0  0  0
 23 49  1  0  0  0
 23 50  1  0  0  0
 25 26  1  0  0  0
 25 51  1  0  0  0
 25 52  1  0  0  0
 26 53  1  0  0  0
 26 54  1  0  0  0
M  END
> <s_m_entry_id>
53076

> <s_m_entry_name>
dock_pv.295

> <s_m_Source_Path>
/home/csk/Desktop/cluster/DUD-E-result/hdac8

> <s_m_Source_File>
dock_pv.maegz

> <i_m_Source_File_Index>
295

> <chembl_id>
CHEMBL1835346

> <chembl_pref_name>
None

> <i_lp_mmshare_version>
53161

> <i_f3d_flags>
0

> <r_lp_tautomer_probability>
1

> <s_lp_Force_Field>
OPLS_2005

> <r_lp_Energy>
24.323692

> <b_lp_Chiralities_Consistent>
1

> <s_lp_Variant>
CHEMBL3192_lig370-1

> <s_i_glide_gridfile>
glide-grid_3f07

> <i_i_glide_lignum>
389

> <i_i_glide_rotatable_bonds>
13

> <r_i_docking_score>
-7.24635380417993

> <r_i_glide_ligand_efficiency>
-0.278705915545382

> <r_i_glide_ligand_efficiency_sa>
-0.825665178148372

> <r_i_glide_ligand_efficiency_ln>
-1.70178241368547

> <r_i_glide_gscore>
-7.24635380417993

> <r_i_glide_lipo>
-1.00954263914326

> <r_i_glide_hbond>
-0.608

> <r_i_glide_metal>
-2.3

> <r_i_glide_rewards>
-0.649178427297199

> <r_i_glide_evdw>
-22.9351577758789

> <r_i_glide_ecoul>
-17.6646537780762

> <r_i_glide_erotb>
1.32033005165271

> <r_i_glide_esite>
-0.203506833886811

> <r_i_glide_emodel>
-56.7609055237354

> <r_i_glide_energy>
-40.5998115539551

> <r_i_glide_einternal>
11.6561212539673

> <i_i_glide_confnum>
383

> <i_i_glide_posenum>
104

> <r_i_glide_eff_state_penalty>
0

> <s_user_duplicate_titles>
CHEMBL3192_lig370

> <s_m_subgroup_title>
dock_pv

> <s_m_subgroupid>
dock_pv

> <b_m_subgroup_collapsed>
1

$$$$
CHEMBL3192_lig1089
                    3D
 Schrodinger Suite 2021-1.
 44 47  0  0  1  0            999 V2000
  -30.4269   25.8399  -37.1585 O   0  0  0  0  0  0
  -29.5184   26.8689  -37.4769 N   0  0  0  0  0  0
  -29.4130   27.2689  -38.7513 C   0  0  0  0  0  0
  -30.2130   26.8640  -39.5845 O   0  0  0  0  0  0
  -28.3615   28.3130  -39.0902 C   0  0  0  0  0  0
  -27.1767   28.3321  -38.3693 C   0  0  0  0  0  0
  -26.1842   29.2690  -38.5988 C   0  0  0  0  0  0
  -26.2982   30.1479  -39.6464 C   0  0  0  0  0  0
  -25.2118   30.9812  -39.8176 O   0  0  0  0  0  0
  -25.0596   31.5255  -41.1271 C   0  0  0  0  0  0
  -26.3716   32.1935  -41.5738 C   0  0  1  0  0  0
  -27.5227   31.1554  -41.5809 C   0  0  0  0  0  0
  -27.4642   30.1764  -40.4228 C   0  0  0  0  0  0
  -28.5022   29.2672  -40.1201 C   0  0  0  0  0  0
  -26.6555   33.2932  -40.6497 N   0  0  0  0  0  0
  -27.5272   34.3432  -40.9513 C   0  0  0  0  0  0
  -27.8030   35.1748  -39.9204 N   0  0  0  0  0  0
  -28.6121   36.2251  -40.1909 C   0  0  0  0  0  0
  -29.1533   36.4552  -41.4566 C   0  0  0  0  0  0
  -28.8519   35.5273  -42.4662 C   0  0  0  0  0  0
  -28.0316   34.4689  -42.2084 N   0  0  0  0  0  0
  -29.3984   35.6267  -43.8581 C   0  0  0  0  0  0
  -28.8740   34.8682  -44.9214 C   0  0  0  0  0  0
  -29.4130   34.9696  -46.2036 C   0  0  0  0  0  0
  -30.4778   35.8432  -46.4046 C   0  0  0  0  0  0
  -31.0126   36.5911  -45.4109 N   0  0  0  0  0  0
  -30.4751   36.4736  -44.1713 C   0  0  0  0  0  0
  -29.8627   25.0863  -36.9540 H   0  0  0  0  0  0
  -29.0131   27.2139  -36.6651 H   0  0  0  0  0  0
  -27.0130   27.6129  -37.5813 H   0  0  0  0  0  0
  -25.2805   29.2684  -38.0068 H   0  0  0  0  0  0
  -24.2330   32.2379  -41.1251 H   0  0  0  0  0  0
  -24.7991   30.7277  -41.8254 H   0  0  0  0  0  0
  -26.2384   32.6126  -42.5728 H   0  0  0  0  0  0
  -27.4585   30.5803  -42.5047 H   0  0  0  0  0  0
  -28.4918   31.6394  -41.5695 H   0  0  0  0  0  0
  -29.4018   29.2830  -40.7187 H   0  0  0  0  0  0
  -26.2953   33.2261  -39.7037 H   0  0  0  0  0  0
  -28.8269   36.8692  -39.3539 H   0  0  0  0  0  0
  -29.7817   37.3162  -41.6244 H   0  0  0  0  0  0
  -28.0461   34.1930  -44.7635 H   0  0  0  0  0  0
  -29.0200   34.3815  -47.0203 H   0  0  0  0  0  0
  -30.9300   35.9398  -47.3812 H   0  0  0  0  0  0
  -30.9540   37.0849  -43.4229 H   0  0  0  0  0  0
  1  2  1  0  0  0
  1 28  1  0  0  0
  2  3  1  0  0  0
  2 29  1  0  0  0
  3  4  2  0  0  0
  3  5  1  0  0  0
  5  6  2  0  0  0
  5 14  1  0  0  0
  6  7  1  0  0  0
  6 30  1  0  0  0
  7  8  2  0  0  0
  7 31  1  0  0  0
  8  9  1  0  0  0
  8 13  1  0  0  0
  9 10  1  0  0  0
 10 11  1  0  0  0
 10 32  1  0  0  0
 10 33  1  0  0  0
 11 12  1  0  0  0
 11 15  1  0  0  0
 11 34  1  0  0  0
 12 13  1  0  0  0
 12 35  1  0  0  0
 12 36  1  0  0  0
 13 14  2  0  0  0
 14 37  1  0  0  0
 15 16  1  0  0  0
 15 38  1  0  0  0
 16 17  2  0  0  0
 16 21  1  0  0  0
 17 18  1  0  0  0
 18 19  2  0  0  0
 18 39  1  0  0  0
 19 20  1  0  0  0
 19 40  1  0  0  0
 20 21  2  0  0  0
 20 22  1  0  0  0
 22 23  2  0  0  0
 22 27  1  0  0  0
 23 24  1  0  0  0
 23 41  1  0  0  0
 24 25  2  0  0  0
 24 42  1  0  0  0
 25 26  1  0  0  0
 25 43  1  0  0  0
 26 27  2  0  0  0
 27 44  1  0  0  0
M  END
> <s_m_entry_id>
53077

> <s_m_entry_name>
dock_pv.296

> <s_m_Source_Path>
/home/csk/Desktop/cluster/DUD-E-result/hdac8

> <s_m_Source_File>
dock_pv.maegz

> <i_m_Source_File_Index>
296

> <chembl_id>
CHEMBL3694334

> <chembl_pref_name>
None

> <i_lp_mmshare_version>
53161

> <i_f3d_flags>
0

> <r_lp_tautomer_probability>
0.999999987636

> <s_lp_Force_Field>
OPLS_2005

> <r_lp_Energy>
28.311972

> <b_lp_Chiralities_Consistent>
1

> <s_lp_Variant>
CHEMBL3192_lig1089-2

> <s_i_glide_gridfile>
glide-grid_3f07

> <i_i_glide_lignum>
1218

> <i_i_glide_rotatable_bonds>
6

> <r_i_docking_score>
-7.23878797203936

> <r_i_glide_ligand_efficiency>
-0.26810325822368

> <r_i_glide_ligand_efficiency_sa>
-0.804309773787416

> <r_i_glide_ligand_efficiency_ln>
-1.68507049914406

> <r_i_glide_gscore>
-7.23878797203936

> <r_i_glide_lipo>
-0.888926266503982

> <r_i_glide_hbond>
-0.61354009924635

> <r_i_glide_metal>
-1.67544056615873

> <r_i_glide_rewards>
-1.18671416350561

> <r_i_glide_evdw>
-19.9601631164551

> <r_i_glide_ecoul>
-15.1527576446533

> <r_i_glide_erotb>
0.727543809328529

> <r_i_glide_esite>
-0.330788883432471

> <r_i_glide_emodel>
-51.4685584486217

> <r_i_glide_energy>
-35.1129207611084

> <r_i_glide_einternal>
2.63022899627686

> <i_i_glide_confnum>
20

> <i_i_glide_posenum>
284

> <r_i_glide_eff_state_penalty>
0

> <s_user_duplicate_titles>
CHEMBL3192_lig1089

> <s_m_subgroup_title>
dock_pv

> <s_m_subgroupid>
dock_pv

> <b_m_subgroup_collapsed>
1

$$$$
CHEMBL3192_lig946
                    3D
 Schrodinger Suite 2021-1.
 56 58  0  0  1  0            999 V2000
  -28.0414   35.4258  -42.8106 C   0  0  0  0  0  0
  -29.1414   35.5743  -43.6487 C   0  0  0  0  0  0
  -29.2231   34.8637  -44.8430 C   0  0  0  0  0  0
  -27.0037   34.5596  -43.1455 C   0  0  0  0  0  0
  -27.0594   33.7969  -44.3471 C   0  0  0  0  0  0
  -28.1911   33.9650  -45.2087 C   0  0  0  0  0  0
  -28.3020   33.2946  -46.3882 N   0  0  0  0  0  0
  -27.2797   32.4725  -46.7176 C   0  0  0  0  0  0
  -26.1673   32.2321  -45.9933 N   0  0  0  0  0  0
  -26.0497   32.8812  -44.8030 C   0  0  0  0  0  0
  -24.8705   32.6183  -44.0552 N   0  0  0  0  0  0
  -24.8041   32.1577  -42.7116 C   0  0  0  0  0  0
  -23.6227   32.5464  -44.8388 C   0  0  0  0  0  0
  -25.9539   31.6711  -42.0736 C   0  0  0  0  0  0
  -25.9193   31.1930  -40.7553 C   0  0  0  0  0  0
  -24.7074   31.1762  -40.0506 C   0  0  0  0  0  0
  -23.5575   31.6827  -40.6720 C   0  0  0  0  0  0
  -23.6068   32.1584  -41.9784 C   0  0  0  0  0  0
  -27.0403   30.7392  -40.0927 O   0  0  0  0  0  0
  -28.1703   30.2882  -40.8300 C   0  0  0  0  0  0
  -29.0128   29.4194  -39.8870 C   0  0  0  0  0  0
  -28.2025   28.2673  -39.2581 C   0  0  0  0  0  0
  -28.9048   27.5372  -38.1008 C   0  0  0  0  0  0
  -29.9242   26.4611  -38.4707 C   0  0  0  0  0  0
  -30.1902   25.5495  -37.5223 N   0  0  0  0  0  0
  -30.4752   26.4691  -39.5781 O   0  0  0  0  0  0
  -31.0134   24.4691  -37.8559 O   0  0  0  0  0  0
  -24.7161   30.6225  -38.7810 O   0  0  0  0  0  0
  -23.4901   30.4751  -38.0689 C   0  0  0  0  0  0
  -27.3673   31.7599  -48.0511 C   0  0  0  0  0  0
  -27.9822   36.0004  -41.8984 H   0  0  0  0  0  0
  -29.9299   36.2600  -43.3777 H   0  0  0  0  0  0
  -30.0728   34.9895  -45.4998 H   0  0  0  0  0  0
  -26.1485   34.4772  -42.4900 H   0  0  0  0  0  0
  -23.7383   32.9520  -45.8448 H   0  0  0  0  0  0
  -22.8222   33.1305  -44.3874 H   0  0  0  0  0  0
  -23.2974   31.5113  -44.9503 H   0  0  0  0  0  0
  -26.8895   31.6627  -42.6086 H   0  0  0  0  0  0
  -22.6105   31.7202  -40.1560 H   0  0  0  0  0  0
  -22.6887   32.5362  -42.3978 H   0  0  0  0  0  0
  -27.8704   29.6977  -41.6981 H   0  0  0  0  0  0
  -28.7523   31.1401  -41.1806 H   0  0  0  0  0  0
  -29.8726   29.0259  -40.4267 H   0  0  0  0  0  0
  -29.4124   30.0552  -39.0952 H   0  0  0  0  0  0
  -27.2782   28.6757  -38.8448 H   0  0  0  0  0  0
  -27.8725   27.5569  -40.0158 H   0  0  0  0  0  0
  -29.3594   28.2447  -37.4049 H   0  0  0  0  0  0
  -28.1070   27.0196  -37.5811 H   0  0  0  0  0  0
  -29.7788   25.4704  -36.6009 H   0  0  0  0  0  0
  -30.4069   23.7137  -37.8966 H   0  0  0  0  0  0
  -23.6333   29.8014  -37.2247 H   0  0  0  0  0  0
  -22.6940   30.0691  -38.6892 H   0  0  0  0  0  0
  -23.1383   31.4268  -37.6800 H   0  0  0  0  0  0
  -28.2391   32.0699  -48.6264 H   0  0  0  0  0  0
  -26.4816   31.9780  -48.6482 H   0  0  0  0  0  0
  -27.4138   30.6817  -47.9015 H   0  0  0  0  0  0
  1  2  2  0  0  0
  1  4  1  0  0  0
  1 31  1  0  0  0
  2  3  1  0  0  0
  2 32  1  0  0  0
  3  6  2  0  0  0
  3 33  1  0  0  0
  4  5  2  0  0  0
  4 34  1  0  0  0
  5  6  1  0  0  0
  5 10  1  0  0  0
  6  7  1  0  0  0
  7  8  2  0  0  0
  8  9  1  0  0  0
  8 30  1  0  0  0
  9 10  2  0  0  0
 10 11  1  0  0  0
 11 12  1  0  0  0
 11 13  1  0  0  0
 12 14  2  0  0  0
 12 18  1  0  0  0
 13 35  1  0  0  0
 13 36  1  0  0  0
 13 37  1  0  0  0
 14 15  1  0  0  0
 14 38  1  0  0  0
 15 16  2  0  0  0
 15 19  1  0  0  0
 16 17  1  0  0  0
 16 28  1  0  0  0
 17 18  2  0  0  0
 17 39  1  0  0  0
 18 40  1  0  0  0
 19 20  1  0  0  0
 20 21  1  0  0  0
 20 41  1  0  0  0
 20 42  1  0  0  0
 21 22  1  0  0  0
 21 43  1  0  0  0
 21 44  1  0  0  0
 22 23  1  0  0  0
 22 45  1  0  0  0
 22 46  1  0  0  0
 23 24  1  0  0  0
 23 47  1  0  0  0
 23 48  1  0  0  0
 24 25  1  0  0  0
 24 26  2  0  0  0
 25 27  1  0  0  0
 25 49  1  0  0  0
 27 50  1  0  0  0
 28 29  1  0  0  0
 29 51  1  0  0  0
 29 52  1  0  0  0
 29 53  1  0  0  0
 30 54  1  0  0  0
 30 55  1  0  0  0
 30 56  1  0  0  0
M  END
> <s_m_entry_id>
53078

> <s_m_entry_name>
dock_pv.297

> <s_m_Source_Path>
/home/csk/Desktop/cluster/DUD-E-result/hdac8

> <s_m_Source_File>
dock_pv.maegz

> <i_m_Source_File_Index>
297

> <chembl_id>
CHEMBL3775654

> <chembl_pref_name>
None

> <i_lp_mmshare_version>
53161

> <i_f3d_flags>
0

> <r_lp_tautomer_probability>
1

> <s_lp_Force_Field>
OPLS_2005

> <r_lp_Energy>
37.621503

> <b_lp_Chiralities_Consistent>
1

> <s_lp_Variant>
CHEMBL3192_lig946-1

> <s_i_glide_gridfile>
glide-grid_3f07

> <i_i_glide_lignum>
1007

> <i_i_glide_rotatable_bonds>
11

> <r_i_docking_score>
-7.23421769273988

> <r_i_glide_ligand_efficiency>
-0.241140589757996

> <r_i_glide_ligand_efficiency_sa>
-0.749279878151446

> <r_i_glide_ligand_efficiency_ln>
-1.6436930829055

> <r_i_glide_gscore>
-7.23421769273988

> <r_i_glide_lipo>
-0.695864542171752

> <r_i_glide_hbond>
-0.304

> <r_i_glide_metal>
-2.3

> <r_i_glide_rewards>
-0.702509184679764

> <r_i_glide_evdw>
-31.0207443237305

> <r_i_glide_ecoul>
-17.3283786773682

> <r_i_glide_erotb>
1.05235949934401

> <r_i_glide_esite>
-0.133909447440623

> <r_i_glide_emodel>
-70.8799133233254

> <r_i_glide_energy>
-48.3491230010986

> <r_i_glide_einternal>
6.04837989807129

> <i_i_glide_confnum>
96

> <i_i_glide_posenum>
370

> <r_i_glide_eff_state_penalty>
0

> <s_user_duplicate_titles>
CHEMBL3192_lig946

> <s_m_subgroup_title>
dock_pv

> <s_m_subgroupid>
dock_pv

> <b_m_subgroup_collapsed>
1

$$$$
CHEMBL3192_lig121
                    3D
 Schrodinger Suite 2021-1.
 44 45  0  0  1  0            999 V2000
  -25.9066   30.1970  -39.0678 C   0  0  0  0  0  0
  -26.0571   31.0435  -40.1714 C   0  0  0  0  0  0
  -27.2066   30.9187  -40.9633 C   0  0  0  0  0  0
  -28.1695   29.9606  -40.6679 C   0  0  0  0  0  0
  -28.0016   29.0961  -39.5837 C   0  0  0  0  0  0
  -26.8673   29.2293  -38.7810 C   0  0  0  0  0  0
  -29.0307   28.0641  -39.3520 C   0  0  0  0  0  0
  -29.1025   27.1513  -38.3544 C   0  0  0  0  0  0
  -30.1839   26.1899  -38.2706 C   0  0  0  0  0  0
  -30.2130   25.4655  -37.1401 N   0  0  0  0  0  0
  -31.0130   26.0690  -39.1810 O   0  0  0  0  0  0
  -31.1955   24.4690  -37.0128 O   0  0  0  0  0  0
  -25.0073   32.0220  -40.4842 C   0  0  0  0  0  0
  -25.0159   32.7433  -41.5292 N   0  0  0  0  0  0
  -23.8627   33.5488  -41.5521 O   0  0  0  0  0  0
  -23.8903   34.4054  -42.6910 C   0  0  0  0  0  0
  -23.6789   33.6370  -43.9936 C   0  0  0  0  0  0
  -24.7410   33.4490  -44.8788 C   0  0  0  0  0  0
  -24.5396   32.7644  -46.0746 C   0  0  0  0  0  0
  -23.2715   32.2650  -46.4045 C   0  0  0  0  0  0
  -22.2130   32.4477  -45.4992 C   0  0  0  0  0  0
  -22.4177   33.1274  -44.3016 C   0  0  0  0  0  0
  -23.0825   31.5486  -47.7097 C   0  0  0  0  0  0
  -21.7847   31.2690  -47.9814 O   0  0  0  0  0  0
  -24.0122   31.2690  -48.4728 O   0  0  0  0  0  0
  -21.4130   30.5872  -49.1716 C   0  0  0  0  0  0
  -25.0310   30.2643  -38.4361 H   0  0  0  0  0  0
  -27.3559   31.5560  -41.8237 H   0  0  0  0  0  0
  -29.0376   29.8842  -41.3068 H   0  0  0  0  0  0
  -26.7058   28.5663  -37.9475 H   0  0  0  0  0  0
  -29.8129   28.0690  -40.0965 H   0  0  0  0  0  0
  -28.3526   27.1150  -37.5810 H   0  0  0  0  0  0
  -29.5678   25.4958  -36.3620 H   0  0  0  0  0  0
  -30.7144   23.6493  -37.1810 H   0  0  0  0  0  0
  -24.2048   32.0874  -39.7513 H   0  0  0  0  0  0
  -24.8095   34.9950  -42.7173 H   0  0  0  0  0  0
  -23.0878   35.1357  -42.5830 H   0  0  0  0  0  0
  -25.7227   33.8328  -44.6423 H   0  0  0  0  0  0
  -25.3793   32.6366  -46.7442 H   0  0  0  0  0  0
  -21.2214   32.0690  -45.7073 H   0  0  0  0  0  0
  -21.5940   33.2615  -43.6151 H   0  0  0  0  0  0
  -20.3298   30.4690  -49.2058 H   0  0  0  0  0  0
  -21.8627   29.5942  -49.2104 H   0  0  0  0  0  0
  -21.7219   31.1440  -50.0574 H   0  0  0  0  0  0
  1  2  2  0  0  0
  1  6  1  0  0  0
  1 27  1  0  0  0
  2 13  1  0  0  0
  2  3  1  0  0  0
  3  4  2  0  0  0
  3 28  1  0  0  0
  4  5  1  0  0  0
  4 29  1  0  0  0
  5  7  1  0  0  0
  5  6  2  0  0  0
  6 30  1  0  0  0
  7  8  2  0  0  0
  7 31  1  0  0  0
  8  9  1  0  0  0
  8 32  1  0  0  0
  9 10  1  0  0  0
  9 11  2  0  0  0
 10 12  1  0  0  0
 10 33  1  0  0  0
 12 34  1  0  0  0
 13 14  2  0  0  0
 13 35  1  0  0  0
 14 15  1  0  0  0
 15 16  1  0  0  0
 16 17  1  0  0  0
 16 36  1  0  0  0
 16 37  1  0  0  0
 17 18  2  0  0  0
 17 22  1  0  0  0
 18 19  1  0  0  0
 18 38  1  0  0  0
 19 20  2  0  0  0
 19 39  1  0  0  0
 20 21  1  0  0  0
 20 23  1  0  0  0
 21 22  2  0  0  0
 21 40  1  0  0  0
 22 41  1  0  0  0
 23 24  1  0  0  0
 23 25  2  0  0  0
 24 26  1  0  0  0
 26 42  1  0  0  0
 26 43  1  0  0  0
 26 44  1  0  0  0
M  END
> <s_m_entry_id>
53079

> <s_m_entry_name>
dock_pv.298

> <s_m_Source_Path>
/home/csk/Desktop/cluster/DUD-E-result/hdac8

> <s_m_Source_File>
dock_pv.maegz

> <i_m_Source_File_Index>
298

> <chembl_id>
CHEMBL471043

> <chembl_pref_name>
None

> <i_lp_mmshare_version>
53161

> <i_f3d_flags>
0

> <r_lp_tautomer_probability>
1

> <s_lp_Force_Field>
OPLS_2005

> <r_lp_Energy>
27.092518

> <b_lp_Chiralities_Consistent>
1

> <s_lp_Variant>
CHEMBL3192_lig121-1

> <s_i_glide_gridfile>
glide-grid_3f07

> <i_i_glide_lignum>
130

> <i_i_glide_rotatable_bonds>
10

> <r_i_docking_score>
-7.23195958239003

> <r_i_glide_ligand_efficiency>
-0.278152291630386

> <r_i_glide_ligand_efficiency_sa>
-0.824025069478601

> <r_i_glide_ligand_efficiency_ln>
-1.6984019779294

> <r_i_glide_gscore>
-7.23195958239003

> <r_i_glide_lipo>
-1.04783100829884

> <r_i_glide_hbond>
-0.237509910644124

> <r_i_glide_metal>
-2.3

> <r_i_glide_rewards>
-1.26707932733107

> <r_i_glide_evdw>
-34.0867385864258

> <r_i_glide_ecoul>
-11.2966213226318

> <r_i_glide_erotb>
1.21735897146122

> <r_i_glide_esite>
-0.198068179861155

> <r_i_glide_emodel>
-68.8339540668758

> <r_i_glide_energy>
-45.3833599090576

> <r_i_glide_einternal>
1.41119694709778

> <i_i_glide_confnum>
13

> <i_i_glide_posenum>
15

> <r_i_glide_eff_state_penalty>
0

> <s_user_duplicate_titles>
CHEMBL3192_lig121,521235

> <s_m_subgroup_title>
dock_pv

> <s_m_subgroupid>
dock_pv

> <b_m_subgroup_collapsed>
1

$$$$
CHEMBL3192_lig695
                    3D
 Schrodinger Suite 2021-1.
 43 45  0  0  1  0            999 V2000
  -29.0130   29.3485  -38.7810 C   0  0  0  0  0  0
  -28.6034   28.0342  -39.0089 C   0  0  0  0  0  0
  -27.4864   27.8483  -39.8310 C   0  0  0  0  0  0
  -28.3783   30.4332  -39.3618 C   0  0  0  0  0  0
  -27.2694   30.2496  -40.1648 C   0  0  0  0  0  0
  -26.8523   28.9450  -40.4321 C   0  0  0  0  0  0
  -29.4130   26.8693  -38.4559 C   0  0  0  0  0  0
  -29.8130   26.9608  -37.1810 N   0  0  0  0  0  0
  -29.8022   25.9552  -39.1810 O   0  0  0  0  0  0
  -30.6134   25.9389  -36.6393 O   0  0  0  0  0  0
  -26.6540   31.4354  -40.6065 N   0  0  0  0  0  0
  -25.4679   31.6114  -41.4586 C   0  0  2  0  0  0
  -25.1880   33.0921  -41.6053 C   0  0  0  0  0  0
  -26.0724   33.5012  -42.7510 C   0  0  0  0  0  0
  -26.1596   32.3096  -43.6094 N   0  0  0  0  0  0
  -25.7975   31.1775  -42.9183 C   0  0  0  0  0  0
  -26.7025   32.3752  -44.9269 C   0  0  0  0  0  0
  -27.4151   33.5264  -45.3064 C   0  0  0  0  0  0
  -27.0223   31.5030  -47.1753 C   0  0  0  0  0  0
  -26.5229   31.3579  -45.8816 C   0  0  0  0  0  0
  -25.7822   30.0103  -43.3201 O   0  0  0  0  0  0
  -24.2129   30.9136  -40.8786 C   0  0  0  0  0  0
  -27.7114   32.6604  -47.5293 C   0  0  0  0  0  0
  -27.9197   33.6660  -46.5944 C   0  0  0  0  0  0
  -28.2988   32.8690  -49.1393 Cl  0  0  0  0  0  0
  -29.8130   29.5725  -38.1008 H   0  0  0  0  0  0
  -27.1342   26.8497  -40.0488 H   0  0  0  0  0  0
  -28.7528   31.4267  -39.1809 H   0  0  0  0  0  0
  -26.0425   28.7679  -41.1150 H   0  0  0  0  0  0
  -29.4904   27.6309  -36.4891 H   0  0  0  0  0  0
  -30.0113   25.4524  -36.0678 H   0  0  0  0  0  0
  -26.7849   32.2055  -39.9680 H   0  0  0  0  0  0
  -25.3614   33.6818  -40.7020 H   0  0  0  0  0  0
  -24.1467   33.2716  -41.8858 H   0  0  0  0  0  0
  -25.6512   34.3500  -43.2925 H   0  0  0  0  0  0
  -27.0721   33.7737  -42.4066 H   0  0  0  0  0  0
  -27.5899   34.3357  -44.6150 H   0  0  0  0  0  0
  -26.8664   30.7247  -47.9071 H   0  0  0  0  0  0
  -25.9701   30.4601  -45.6556 H   0  0  0  0  0  0
  -23.3447   31.0460  -41.5253 H   0  0  0  0  0  0
  -23.9522   31.3348  -39.9064 H   0  0  0  0  0  0
  -24.3271   29.8469  -40.7306 H   0  0  0  0  0  0
  -28.4587   34.5600  -46.8712 H   0  0  0  0  0  0
  1  2  2  0  0  0
  1  4  1  0  0  0
  1 26  1  0  0  0
  2  3  1  0  0  0
  2  7  1  0  0  0
  3  6  2  0  0  0
  3 27  1  0  0  0
  4  5  2  0  0  0
  4 28  1  0  0  0
  5  6  1  0  0  0
  5 11  1  0  0  0
  6 29  1  0  0  0
  7  8  1  0  0  0
  7  9  2  0  0  0
  8 10  1  0  0  0
  8 30  1  0  0  0
 10 31  1  0  0  0
 11 12  1  0  0  0
 11 32  1  0  0  0
 12 13  1  0  0  0
 12 16  1  0  0  0
 12 22  1  0  0  0
 13 14  1  0  0  0
 13 33  1  0  0  0
 13 34  1  0  0  0
 14 15  1  0  0  0
 14 35  1  0  0  0
 14 36  1  0  0  0
 15 16  1  0  0  0
 15 17  1  0  0  0
 16 21  2  0  0  0
 17 18  2  0  0  0
 17 20  1  0  0  0
 18 24  1  0  0  0
 18 37  1  0  0  0
 19 23  1  0  0  0
 19 20  2  0  0  0
 19 38  1  0  0  0
 20 39  1  0  0  0
 22 40  1  0  0  0
 22 41  1  0  0  0
 22 42  1  0  0  0
 23 24  2  0  0  0
 23 25  1  0  0  0
 24 43  1  0  0  0
M  END
> <s_m_entry_id>
53080

> <s_m_entry_name>
dock_pv.299

> <s_m_Source_Path>
/home/csk/Desktop/cluster/DUD-E-result/hdac8

> <s_m_Source_File>
dock_pv.maegz

> <i_m_Source_File_Index>
299

> <chembl_id>
CHEMBL3415630

> <chembl_pref_name>
None

> <i_lp_mmshare_version>
53161

> <i_f3d_flags>
0

> <r_lp_tautomer_probability>
1

> <s_lp_Force_Field>
OPLS_2005

> <r_lp_Energy>
50.367117

> <b_lp_Chiralities_Consistent>
1

> <s_lp_Variant>
CHEMBL3192_lig695-1

> <s_i_glide_gridfile>
glide-grid_3f07

> <i_i_glide_lignum>
739

> <i_i_glide_rotatable_bonds>
6

> <r_i_docking_score>
-7.22754453712496

> <r_i_glide_ligand_efficiency>
-0.289101781484999

> <r_i_glide_ligand_efficiency_sa>
-0.845338736304062

> <r_i_glide_ligand_efficiency_ln>
-1.71314464733049

> <r_i_glide_gscore>
-7.22754453712496

> <r_i_glide_lipo>
-1.1779053084338

> <r_i_glide_hbond>
-0.24150650490166

> <r_i_glide_metal>
-2.3

> <r_i_glide_rewards>
-1.19377293682565

> <r_i_glide_evdw>
-24.059778213501

> <r_i_glide_ecoul>
-11.0261945724487

> <r_i_glide_erotb>
0.740443516372757

> <r_i_glide_esite>
-0.197885206794255

> <r_i_glide_emodel>
-52.0143858878549

> <r_i_glide_energy>
-35.0859727859497

> <r_i_glide_einternal>
3.2792534828186

> <i_i_glide_confnum>
1

> <i_i_glide_posenum>
318

> <r_i_glide_eff_state_penalty>
0

> <s_user_duplicate_titles>
CHEMBL3192_lig695,CHEMBL3192_lig692

> <s_m_subgroup_title>
dock_pv

> <s_m_subgroupid>
dock_pv

> <b_m_subgroup_collapsed>
1

$$$$
CHEMBL3192_lig102
                    3D
 Schrodinger Suite 2021-1.
 40 40  0  0  1  0            999 V2000
  -25.9881   31.5370  -45.2351 C   0  0  0  0  0  0
  -26.9723   31.5641  -46.2335 C   0  0  0  0  0  0
  -26.6345   31.4209  -47.5784 C   0  0  0  0  0  0
  -25.3001   31.2690  -47.9468 C   0  0  0  0  0  0
  -24.3061   31.2690  -46.9693 C   0  0  0  0  0  0
  -24.6424   31.3927  -45.6209 C   0  0  0  0  0  0
  -29.1924   27.3728  -38.0326 C   0  0  0  0  0  0
  -26.4364   31.6836  -43.8318 C   0  0  0  0  0  0
  -25.7777   31.3130  -42.7117 C   0  0  0  0  0  0
  -26.3450   31.4915  -41.3953 C   0  0  0  0  0  0
  -25.6606   30.8484  -40.4333 N   0  0  0  0  0  0
  -27.3813   32.1274  -41.1810 O   0  0  0  0  0  0
  -26.0393   30.7744  -39.0190 C   0  0  0  0  0  0
  -26.8549   29.5052  -38.6798 C   0  0  0  0  0  0
  -28.2622   29.4541  -39.3088 C   0  0  0  0  0  0
  -28.8760   28.0499  -39.3898 C   0  0  0  0  0  0
  -30.2130   26.2256  -38.1300 C   0  0  0  0  0  0
  -30.3822   25.4740  -37.0308 N   0  0  0  0  0  0
  -30.8502   26.0690  -39.1810 O   0  0  0  0  0  0
  -31.3333   24.4434  -37.0732 O   0  0  0  0  0  0
  -23.6422   31.3822  -44.7102 F   0  0  0  0  0  0
  -24.8809   31.0536  -49.6069 Cl  0  0  0  0  0  0
  -28.0155   31.6770  -45.9725 H   0  0  0  0  0  0
  -27.4110   31.4217  -48.3309 H   0  0  0  0  0  0
  -23.2693   31.1583  -47.2516 H   0  0  0  0  0  0
  -28.2689   27.0134  -37.5832 H   0  0  0  0  0  0
  -29.6079   28.1100  -37.3435 H   0  0  0  0  0  0
  -27.4130   32.1335  -43.7212 H   0  0  0  0  0  0
  -24.8055   30.8461  -42.7559 H   0  0  0  0  0  0
  -24.7916   30.4013  -40.6824 H   0  0  0  0  0  0
  -25.1369   30.8142  -38.4068 H   0  0  0  0  0  0
  -26.6129   31.6641  -38.7555 H   0  0  0  0  0  0
  -26.2772   28.6315  -38.9834 H   0  0  0  0  0  0
  -26.9666   29.4252  -37.5984 H   0  0  0  0  0  0
  -28.9331   30.1331  -38.7810 H   0  0  0  0  0  0
  -28.2254   29.8223  -40.3316 H   0  0  0  0  0  0
  -29.7848   28.1596  -39.9810 H   0  0  0  0  0  0
  -28.2128   27.4045  -39.9690 H   0  0  0  0  0  0
  -29.8985   25.5416  -36.1447 H   0  0  0  0  0  0
  -30.8022   23.6450  -37.1810 H   0  0  0  0  0  0
  1  6  1  0  0  0
  1  2  2  0  0  0
  1  8  1  0  0  0
  2  3  1  0  0  0
  2 23  1  0  0  0
  3  4  2  0  0  0
  3 24  1  0  0  0
  4  5  1  0  0  0
  4 22  1  0  0  0
  5  6  2  0  0  0
  5 25  1  0  0  0
  6 21  1  0  0  0
  7 16  1  0  0  0
  7 17  1  0  0  0
  7 26  1  0  0  0
  7 27  1  0  0  0
  8  9  2  0  0  0
  8 28  1  0  0  0
  9 10  1  0  0  0
  9 29  1  0  0  0
 10 12  2  0  0  0
 10 11  1  0  0  0
 11 13  1  0  0  0
 11 30  1  0  0  0
 13 14  1  0  0  0
 13 31  1  0  0  0
 13 32  1  0  0  0
 14 15  1  0  0  0
 14 33  1  0  0  0
 14 34  1  0  0  0
 15 16  1  0  0  0
 15 35  1  0  0  0
 15 36  1  0  0  0
 16 37  1  0  0  0
 16 38  1  0  0  0
 17 18  1  0  0  0
 17 19  2  0  0  0
 18 20  1  0  0  0
 18 39  1  0  0  0
 20 40  1  0  0  0
M  END
> <s_m_entry_id>
53081

> <s_m_entry_name>
dock_pv.300

> <s_m_Source_Path>
/home/csk/Desktop/cluster/DUD-E-result/hdac8

> <s_m_Source_File>
dock_pv.maegz

> <i_m_Source_File_Index>
300

> <chembl_id>
CHEMBL484489

> <chembl_pref_name>
None

> <i_lp_mmshare_version>
53161

> <i_f3d_flags>
0

> <r_lp_tautomer_probability>
1

> <s_lp_Force_Field>
OPLS_2005

> <r_lp_Energy>
14.63028

> <b_lp_Chiralities_Consistent>
1

> <s_lp_Variant>
CHEMBL3192_lig102-1

> <s_i_glide_gridfile>
glide-grid_3f07

> <i_i_glide_lignum>
107

> <i_i_glide_rotatable_bonds>
11

> <r_i_docking_score>
-7.21659660186598

> <r_i_glide_ligand_efficiency>
-0.328027118266635

> <r_i_glide_ligand_efficiency_sa>
-0.91914488595762

> <r_i_glide_ligand_efficiency_ln>
-1.7639994412529

> <r_i_glide_gscore>
-7.21659660186598

> <r_i_glide_lipo>
-1.26244314955381

> <r_i_glide_hbond>
-0.243360410192337

> <r_i_glide_metal>
-2.3

> <r_i_glide_rewards>
-1.22663427601415

> <r_i_glide_evdw>
-30.8642120361328

> <r_i_glide_ecoul>
-14.0053234100342

> <r_i_glide_erotb>
1.56423165129786

> <r_i_glide_esite>
-0.10438130409178

> <r_i_glide_emodel>
-67.8054685899637

> <r_i_glide_energy>
-44.869535446167

> <r_i_glide_einternal>
5.48990345001221

> <i_i_glide_confnum>
17

> <i_i_glide_posenum>
373

> <r_i_glide_eff_state_penalty>
0

> <s_user_duplicate_titles>
CHEMBL3192_lig102

> <s_m_subgroup_title>
dock_pv

> <s_m_subgroupid>
dock_pv

> <b_m_subgroup_collapsed>
1

$$$$
CHEMBL3192_lig737
                    3D
 Schrodinger Suite 2021-1.
 42 43  0  0  1  0            999 V2000
  -25.9573   30.8340  -38.6593 C   0  0  0  0  0  0
  -26.6086   29.4685  -38.9539 C   0  0  0  0  0  0
  -28.0979   29.5611  -39.3233 C   0  0  0  0  0  0
  -28.7897   28.1907  -39.4072 C   0  0  0  0  0  0
  -29.0903   27.5310  -38.0371 C   0  0  0  0  0  0
  -30.0379   26.3209  -38.1168 C   0  0  0  0  0  0
  -30.2130   25.5998  -36.9978 N   0  0  0  0  0  0
  -30.6130   26.0690  -39.1810 O   0  0  0  0  0  0
  -31.0440   24.4690  -37.0629 O   0  0  0  0  0  0
  -24.4421   30.8649  -38.9571 C   0  0  0  0  0  0
  -24.0988   31.0928  -40.4175 C   0  0  0  0  0  0
  -24.8493   30.9282  -41.4754 N   0  0  0  0  0  0
  -24.0386   31.2867  -42.4568 C   0  0  0  0  0  0
  -22.8305   31.6690  -42.0906 N   0  0  0  0  0  0
  -22.8484   31.5241  -40.7063 O   0  0  0  0  0  0
  -24.4616   31.2655  -43.8982 C   0  0  0  0  0  0
  -23.5055   31.2671  -44.9214 C   0  0  0  0  0  0
  -23.8982   31.2690  -46.2567 C   0  0  0  0  0  0
  -25.2573   31.2690  -46.5991 C   0  0  0  0  0  0
  -26.2130   31.2615  -45.5744 C   0  0  0  0  0  0
  -25.8189   31.2548  -44.2395 C   0  0  0  0  0  0
  -25.6786   31.2690  -48.0218 N   0  3  0  0  0  0
  -24.8152   31.1784  -48.8908 O   0  0  0  0  0  0
  -26.8761   31.3420  -48.2775 O   0  5  0  0  0  0
  -26.4476   31.6315  -39.2207 H   0  0  0  0  0  0
  -26.1268   31.0812  -37.6097 H   0  0  0  0  0  0
  -26.4687   28.8202  -38.0887 H   0  0  0  0  0  0
  -26.0921   28.9763  -39.7785 H   0  0  0  0  0  0
  -28.1760   30.0538  -40.2940 H   0  0  0  0  0  0
  -28.6393   30.2045  -38.6326 H   0  0  0  0  0  0
  -28.1610   27.5105  -39.9810 H   0  0  0  0  0  0
  -29.7073   28.3278  -39.9810 H   0  0  0  0  0  0
  -29.5456   28.2602  -37.3655 H   0  0  0  0  0  0
  -28.1506   27.2265  -37.5810 H   0  0  0  0  0  0
  -29.7787   25.7318  -36.0934 H   0  0  0  0  0  0
  -30.4272   23.7348  -37.1810 H   0  0  0  0  0  0
  -23.9922   31.6690  -38.3810 H   0  0  0  0  0  0
  -23.9645   29.9554  -38.5906 H   0  0  0  0  0  0
  -22.4495   31.2702  -44.6887 H   0  0  0  0  0  0
  -23.1348   31.2729  -47.0224 H   0  0  0  0  0  0
  -27.2691   31.2615  -45.8066 H   0  0  0  0  0  0
  -26.5774   31.2562  -43.4699 H   0  0  0  0  0  0
  1  2  1  0  0  0
  1 10  1  0  0  0
  1 25  1  0  0  0
  1 26  1  0  0  0
  2  3  1  0  0  0
  2 27  1  0  0  0
  2 28  1  0  0  0
  3  4  1  0  0  0
  3 29  1  0  0  0
  3 30  1  0  0  0
  4  5  1  0  0  0
  4 31  1  0  0  0
  4 32  1  0  0  0
  5  6  1  0  0  0
  5 33  1  0  0  0
  5 34  1  0  0  0
  6  7  1  0  0  0
  6  8  2  0  0  0
  7  9  1  0  0  0
  7 35  1  0  0  0
  9 36  1  0  0  0
 10 11  1  0  0  0
 10 37  1  0  0  0
 10 38  1  0  0  0
 11 12  2  0  0  0
 11 15  1  0  0  0
 12 13  1  0  0  0
 13 14  2  0  0  0
 13 16  1  0  0  0
 14 15  1  0  0  0
 16 17  2  0  0  0
 16 21  1  0  0  0
 17 18  1  0  0  0
 17 39  1  0  0  0
 18 19  2  0  0  0
 18 40  1  0  0  0
 19 20  1  0  0  0
 19 22  1  0  0  0
 20 21  2  0  0  0
 20 41  1  0  0  0
 21 42  1  0  0  0
 22 23  2  0  0  0
 22 24  1  0  0  0
M  CHG  2  22   1  24  -1
M  END
> <s_m_entry_id>
53082

> <s_m_entry_name>
dock_pv.301

> <s_m_Source_Path>
/home/csk/Desktop/cluster/DUD-E-result/hdac8

> <s_m_Source_File>
dock_pv.maegz

> <i_m_Source_File_Index>
301

> <chembl_id>
CHEMBL3585965

> <chembl_pref_name>
None

> <i_lp_mmshare_version>
53161

> <i_f3d_flags>
0

> <r_lp_tautomer_probability>
1

> <s_lp_Force_Field>
OPLS_2005

> <r_lp_Energy>
18.325386

> <b_lp_Chiralities_Consistent>
1

> <s_lp_Variant>
CHEMBL3192_lig737-1

> <s_i_glide_gridfile>
glide-grid_3f07

> <i_i_glide_lignum>
788

> <i_i_glide_rotatable_bonds>
11

> <r_i_docking_score>
-7.21416763790778

> <r_i_glide_ligand_efficiency>
-0.300590318246157

> <r_i_glide_ligand_efficiency_sa>
-0.867052513739662

> <r_i_glide_ligand_efficiency_ln>
-1.7266813523336

> <r_i_glide_gscore>
-7.21416763790778

> <r_i_glide_lipo>
-1.21317106683055

> <r_i_glide_hbond>
-0.221856869647192

> <r_i_glide_metal>
-2.3

> <r_i_glide_rewards>
-1.17851803940163

> <r_i_glide_evdw>
-33.0730628967285

> <r_i_glide_ecoul>
-13.4239892959595

> <r_i_glide_erotb>
1.518517525469

> <r_i_glide_esite>
-0.151887648267067

> <r_i_glide_emodel>
-69.6800097756499

> <r_i_glide_energy>
-46.497052192688

> <r_i_glide_einternal>
4.9596004486084

> <i_i_glide_confnum>
28

> <i_i_glide_posenum>
227

> <r_i_glide_eff_state_penalty>
0

> <s_user_duplicate_titles>
CHEMBL3192_lig737

> <s_m_subgroup_title>
dock_pv

> <s_m_subgroupid>
dock_pv

> <b_m_subgroup_collapsed>
1

$$$$
CHEMBL3192_lig452
                    3D
 Schrodinger Suite 2021-1.
 41 42  0  0  1  0            999 V2000
  -31.0130   24.8068  -37.5035 O   0  0  0  0  0  0
  -29.9386   25.7080  -37.5548 N   0  0  0  0  0  0
  -29.7943   26.4689  -38.6520 C   0  0  0  0  0  0
  -30.6116   26.4699  -39.5809 O   0  0  0  0  0  0
  -28.5296   27.3415  -38.7502 C   0  0  0  0  0  0
  -28.6807   28.7666  -38.1792 C   0  0  0  0  0  0
  -28.8878   29.8853  -39.2224 C   0  0  0  0  0  0
  -27.6546   30.2206  -40.0536 C   0  0  0  0  0  0
  -26.4900   30.7290  -39.4673 C   0  0  0  0  0  0
  -25.3946   31.0632  -40.2661 C   0  0  0  0  0  0
  -25.4520   30.8907  -41.6530 C   0  0  0  0  0  0
  -24.3464   31.2658  -42.4338 N   0  0  0  0  0  0
  -24.1333   30.8692  -44.1579 S   0  0  0  0  0  0
  -22.7521   31.2398  -44.4810 O   0  0  0  0  0  0
  -24.6121   29.4998  -44.3812 O   0  0  0  0  0  0
  -25.2030   31.9948  -45.0522 C   0  0  0  0  0  0
  -26.3401   31.5151  -45.7106 C   0  0  0  0  0  0
  -27.1728   32.4031  -46.3878 C   0  0  0  0  0  0
  -26.8644   33.7622  -46.4053 C   0  0  0  0  0  0
  -25.7287   34.2414  -45.7544 C   0  0  0  0  0  0
  -24.8952   33.3561  -45.0754 C   0  0  0  0  0  0
  -26.6168   30.3847  -42.2274 C   0  0  0  0  0  0
  -27.7081   30.0598  -41.4327 C   0  0  0  0  0  0
  -30.5878   23.9422  -37.5803 H   0  0  0  0  0  0
  -29.3152   25.6319  -36.7634 H   0  0  0  0  0  0
  -27.7281   26.8687  -38.1900 H   0  0  0  0  0  0
  -28.1732   27.3638  -39.7803 H   0  0  0  0  0  0
  -29.5005   28.7995  -37.4592 H   0  0  0  0  0  0
  -27.7931   28.9855  -37.5834 H   0  0  0  0  0  0
  -29.7251   29.6242  -39.8707 H   0  0  0  0  0  0
  -29.2007   30.8064  -38.7321 H   0  0  0  0  0  0
  -26.4317   30.8816  -38.3985 H   0  0  0  0  0  0
  -24.5070   31.4694  -39.8015 H   0  0  0  0  0  0
  -23.6102   31.7980  -41.9951 H   0  0  0  0  0  0
  -26.5835   30.4628  -45.6996 H   0  0  0  0  0  0
  -28.0544   32.0400  -46.8989 H   0  0  0  0  0  0
  -27.5097   34.4502  -46.9329 H   0  0  0  0  0  0
  -25.4954   35.2957  -45.7753 H   0  0  0  0  0  0
  -24.0141   33.7262  -44.5697 H   0  0  0  0  0  0
  -26.7117   30.2541  -43.2927 H   0  0  0  0  0  0
  -28.6023   29.6732  -41.8956 H   0  0  0  0  0  0
  1  2  1  0  0  0
  1 24  1  0  0  0
  2  3  1  0  0  0
  2 25  1  0  0  0
  3  4  2  0  0  0
  3  5  1  0  0  0
  5  6  1  0  0  0
  5 26  1  0  0  0
  5 27  1  0  0  0
  6  7  1  0  0  0
  6 28  1  0  0  0
  6 29  1  0  0  0
  7  8  1  0  0  0
  7 30  1  0  0  0
  7 31  1  0  0  0
  8  9  2  0  0  0
  8 23  1  0  0  0
  9 10  1  0  0  0
  9 32  1  0  0  0
 10 11  2  0  0  0
 10 33  1  0  0  0
 11 12  1  0  0  0
 11 22  1  0  0  0
 12 13  1  0  0  0
 12 34  1  0  0  0
 13 14  2  0  0  0
 13 15  2  0  0  0
 13 16  1  0  0  0
 16 17  2  0  0  0
 16 21  1  0  0  0
 17 18  1  0  0  0
 17 35  1  0  0  0
 18 19  2  0  0  0
 18 36  1  0  0  0
 19 20  1  0  0  0
 19 37  1  0  0  0
 20 21  2  0  0  0
 20 38  1  0  0  0
 21 39  1  0  0  0
 22 23  2  0  0  0
 22 40  1  0  0  0
 23 41  1  0  0  0
M  END
> <s_m_entry_id>
53083

> <s_m_entry_name>
dock_pv.302

> <s_m_Source_Path>
/home/csk/Desktop/cluster/DUD-E-result/hdac8

> <s_m_Source_File>
dock_pv.maegz

> <i_m_Source_File_Index>
302

> <chembl_id>
CHEMBL97860

> <chembl_pref_name>
None

> <i_lp_mmshare_version>
53161

> <i_f3d_flags>
0

> <r_lp_tautomer_probability>
1

> <s_lp_Force_Field>
OPLS_2005

> <r_lp_Energy>
13.180989

> <b_lp_Chiralities_Consistent>
1

> <s_lp_Variant>
CHEMBL3192_lig452-1

> <s_i_glide_gridfile>
glide-grid_3f07

> <i_i_glide_lignum>
471

> <i_i_glide_rotatable_bonds>
9

> <r_i_docking_score>
-7.21086407141442

> <r_i_glide_ligand_efficiency>
-0.313515829191931

> <r_i_glide_ligand_efficiency_sa>
-0.891597313367851

> <r_i_glide_ligand_efficiency_ln>
-1.74365231696843

> <r_i_glide_gscore>
-7.21086407141442

> <r_i_glide_lipo>
-1.04274445648846

> <r_i_glide_hbond>
-0.308714933742543

> <r_i_glide_metal>
-2.3

> <r_i_glide_rewards>
-0.949088591143601

> <r_i_glide_evdw>
-26.9433708190918

> <r_i_glide_ecoul>
-16.3590240478516

> <r_i_glide_erotb>
1.34933689913992

> <r_i_glide_esite>
-0.158630841047417

> <r_i_glide_emodel>
-63.078151202748

> <r_i_glide_energy>
-43.3023948669434

> <r_i_glide_einternal>
5.80891847610474

> <i_i_glide_confnum>
54

> <i_i_glide_posenum>
112

> <r_i_glide_eff_state_penalty>
0

> <s_user_duplicate_titles>
CHEMBL3192_lig452

> <s_m_subgroup_title>
dock_pv

> <s_m_subgroupid>
dock_pv

> <b_m_subgroup_collapsed>
1

$$$$
CHEMBL3192_lig59
                    3D
 Schrodinger Suite 2021-1.
 49 49  0  0  1  0            999 V2000
  -26.6717   31.2695  -47.2857 C   0  0  0  0  0  0
  -25.4638   31.2692  -48.0013 C   0  0  0  0  0  0
  -24.2676   31.2947  -47.2645 C   0  0  0  0  0  0
  -24.2740   31.3012  -45.8717 C   0  0  0  0  0  0
  -25.4898   31.2871  -45.1743 C   0  0  0  0  0  0
  -26.6835   31.2802  -45.8944 C   0  0  0  0  0  0
  -25.6165   31.2767  -43.7702 N   0  0  0  0  0  0
  -25.4488   31.1972  -49.4235 N   0  0  0  0  0  0
  -24.2383   31.5874  -50.1491 C   0  0  0  0  0  0
  -26.7050   31.2655  -50.1731 C   0  0  0  0  0  0
  -24.6616   31.2679  -42.8184 C   0  0  0  0  0  0
  -25.2085   31.2182  -41.5941 N   0  0  0  0  0  0
  -23.4472   31.2669  -43.0154 O   0  0  0  0  0  0
  -24.4610   31.0462  -40.3485 C   0  0  0  0  0  0
  -25.3456   31.1500  -39.0889 C   0  0  0  0  0  0
  -26.2949   29.9670  -38.7952 C   0  0  0  0  0  0
  -27.3457   29.6798  -39.8863 C   0  0  0  0  0  0
  -28.5784   28.9006  -39.3925 C   0  0  0  0  0  0
  -28.2783   27.4933  -38.8223 C   0  0  0  0  0  0
  -29.5695   26.7412  -38.4774 C   0  0  0  0  0  0
  -29.8130   26.4698  -37.1844 N   0  0  0  0  0  0
  -30.3602   26.4690  -39.3881 O   0  0  0  0  0  0
  -31.0198   25.8401  -36.8432 O   0  0  0  0  0  0
  -27.6256   31.2545  -47.7900 H   0  0  0  0  0  0
  -23.3064   31.2920  -47.7531 H   0  0  0  0  0  0
  -23.3209   31.3125  -45.3674 H   0  0  0  0  0  0
  -27.6354   31.2763  -45.3840 H   0  0  0  0  0  0
  -26.5686   31.2715  -43.4417 H   0  0  0  0  0  0
  -23.9818   32.6232  -49.9217 H   0  0  0  0  0  0
  -23.3865   30.9679  -49.8682 H   0  0  0  0  0  0
  -24.3643   31.5095  -51.2293 H   0  0  0  0  0  0
  -27.4100   30.5092  -49.8274 H   0  0  0  0  0  0
  -27.1753   32.2406  -50.0386 H   0  0  0  0  0  0
  -26.5538   31.1098  -51.2414 H   0  0  0  0  0  0
  -26.2023   31.3505  -41.4964 H   0  0  0  0  0  0
  -23.6539   31.7800  -40.2856 H   0  0  0  0  0  0
  -23.9793   30.0690  -40.3679 H   0  0  0  0  0  0
  -25.9215   32.0736  -39.1261 H   0  0  0  0  0  0
  -24.6854   31.2659  -38.2278 H   0  0  0  0  0  0
  -26.8087   30.1884  -37.8592 H   0  0  0  0  0  0
  -25.7129   29.0663  -38.6022 H   0  0  0  0  0  0
  -26.8782   29.1417  -40.7127 H   0  0  0  0  0  0
  -27.6976   30.6254  -40.3009 H   0  0  0  0  0  0
  -29.2743   28.8244  -40.2303 H   0  0  0  0  0  0
  -29.0894   29.4991  -38.6360 H   0  0  0  0  0  0
  -27.6333   27.5665  -37.9472 H   0  0  0  0  0  0
  -27.7312   26.8964  -39.5536 H   0  0  0  0  0  0
  -29.2486   26.7370  -36.3827 H   0  0  0  0  0  0
  -31.5211   26.5313  -36.3998 H   0  0  0  0  0  0
  1  6  1  0  0  0
  1  2  2  0  0  0
  1 24  1  0  0  0
  2  8  1  0  0  0
  2  3  1  0  0  0
  3  4  2  0  0  0
  3 25  1  0  0  0
  4  5  1  0  0  0
  4 26  1  0  0  0
  5  6  2  0  0  0
  5  7  1  0  0  0
  6 27  1  0  0  0
  7 11  1  0  0  0
  7 28  1  0  0  0
  8  9  1  0  0  0
  8 10  1  0  0  0
  9 29  1  0  0  0
  9 30  1  0  0  0
  9 31  1  0  0  0
 10 32  1  0  0  0
 10 33  1  0  0  0
 10 34  1  0  0  0
 11 12  1  0  0  0
 11 13  2  0  0  0
 12 14  1  0  0  0
 12 35  1  0  0  0
 14 15  1  0  0  0
 14 36  1  0  0  0
 14 37  1  0  0  0
 15 16  1  0  0  0
 15 38  1  0  0  0
 15 39  1  0  0  0
 16 17  1  0  0  0
 16 40  1  0  0  0
 16 41  1  0  0  0
 17 18  1  0  0  0
 17 42  1  0  0  0
 17 43  1  0  0  0
 18 19  1  0  0  0
 18 44  1  0  0  0
 18 45  1  0  0  0
 19 20  1  0  0  0
 19 46  1  0  0  0
 19 47  1  0  0  0
 20 21  1  0  0  0
 20 22  2  0  0  0
 21 23  1  0  0  0
 21 48  1  0  0  0
 23 49  1  0  0  0
M  END
> <s_m_entry_id>
53084

> <s_m_entry_name>
dock_pv.303

> <s_m_Source_Path>
/home/csk/Desktop/cluster/DUD-E-result/hdac8

> <s_m_Source_File>
dock_pv.maegz

> <i_m_Source_File_Index>
303

> <chembl_id>
CHEMBL227120

> <chembl_pref_name>
None

> <i_lp_mmshare_version>
53161

> <i_f3d_flags>
0

> <r_lp_tautomer_probability>
1

> <s_lp_Force_Field>
OPLS_2005

> <r_lp_Energy>
24.192543

> <b_lp_Chiralities_Consistent>
1

> <s_lp_Variant>
CHEMBL3192_lig59-1

> <s_i_glide_gridfile>
glide-grid_3f07

> <i_i_glide_lignum>
61

> <i_i_glide_rotatable_bonds>
13

> <r_i_docking_score>
-7.20312444302174

> <r_i_glide_ligand_efficiency>
-0.313179323609641

> <r_i_glide_ligand_efficiency_sa>
-0.890640336254839

> <r_i_glide_ligand_efficiency_ln>
-1.74178080464401

> <r_i_glide_gscore>
-7.20312444302174

> <r_i_glide_lipo>
-1.03354237084307

> <r_i_glide_hbond>
-0.608

> <r_i_glide_metal>
-2.3

> <r_i_glide_rewards>
-1.28435438231534

> <r_i_glide_evdw>
-29.5032691955566

> <r_i_glide_ecoul>
-15.326696395874

> <r_i_glide_erotb>
1.97894423484884

> <r_i_glide_esite>
-0.182004005553235

> <r_i_glide_emodel>
-68.4223997501919

> <r_i_glide_energy>
-44.8299655914307

> <r_i_glide_einternal>
5.06222438812256

> <i_i_glide_confnum>
34

> <i_i_glide_posenum>
113

> <r_i_glide_eff_state_penalty>
0

> <s_user_duplicate_titles>
CHEMBL3192_lig59

> <s_m_subgroup_title>
dock_pv

> <s_m_subgroupid>
dock_pv

> <b_m_subgroup_collapsed>
1

$$$$
CHEMBL3192_lig1047
                    3D
 Schrodinger Suite 2021-1.
 47 50  0  0  1  0            999 V2000
  -30.2133   25.4777  -37.3172 O   0  0  0  0  0  0
  -29.4132   26.6203  -37.5178 N   0  0  0  0  0  0
  -29.4060   27.1933  -38.7232 C   0  0  0  0  0  0
  -30.2174   26.8683  -39.5810 O   0  0  0  0  0  0
  -28.4165   28.3090  -38.9699 C   0  0  0  0  0  0
  -27.1617   28.2810  -38.3810 C   0  0  0  0  0  0
  -26.2140   29.2694  -38.6306 C   0  0  0  0  0  0
  -26.4839   30.3275  -39.4833 C   0  0  0  0  0  0
  -25.3716   31.3109  -39.8556 C   0  0  0  0  0  0
  -25.9027   32.6539  -40.3809 C   0  0  0  0  0  0
  -27.0043   32.4394  -41.4191 C   0  0  1  0  0  0
  -28.1852   31.6442  -40.8064 C   0  0  0  0  0  0
  -27.7760   30.4168  -40.0296 C   0  0  0  0  0  0
  -28.7119   29.3942  -39.7988 C   0  0  0  0  0  0
  -27.4795   33.7570  -41.8589 N   0  0  0  0  0  0
  -27.7764   34.0690  -43.1936 C   0  0  0  0  0  0
  -28.6149   35.1188  -43.3798 N   0  0  0  0  0  0
  -28.9704   35.3916  -44.6619 C   0  0  0  0  0  0
  -28.4942   34.6515  -45.7458 C   0  0  0  0  0  0
  -27.6062   33.6012  -45.4719 C   0  0  0  0  0  0
  -27.2531   33.3042  -44.1899 N   0  0  0  0  0  0
  -26.9647   32.7841  -46.5479 C   0  0  0  0  0  0
  -27.6172   32.5559  -47.7685 C   0  0  0  0  0  0
  -27.0126   31.8081  -48.7791 C   0  0  0  0  0  0
  -25.7395   31.2759  -48.5923 C   0  0  0  0  0  0
  -25.1682   30.5467  -49.5800 F   0  0  0  0  0  0
  -25.0678   31.4968  -47.3880 C   0  0  0  0  0  0
  -23.4765   30.8691  -47.1369 Cl  0  0  0  0  0  0
  -25.6826   32.2352  -46.3760 C   0  0  0  0  0  0
  -29.5808   24.7495  -37.2776 H   0  0  0  0  0  0
  -28.8423   26.8688  -36.7133 H   0  0  0  0  0  0
  -26.9237   27.4722  -37.7090 H   0  0  0  0  0  0
  -25.2350   29.1964  -38.1798 H   0  0  0  0  0  0
  -24.7093   31.4855  -39.0058 H   0  0  0  0  0  0
  -24.7590   30.8468  -40.6297 H   0  0  0  0  0  0
  -26.2864   33.2487  -39.5534 H   0  0  0  0  0  0
  -25.0776   33.2300  -40.8035 H   0  0  0  0  0  0
  -26.5972   31.8743  -42.2595 H   0  0  0  0  0  0
  -28.8486   31.2695  -41.5803 H   0  0  0  0  0  0
  -28.7531   32.2761  -40.1306 H   0  0  0  0  0  0
  -29.6927   29.4717  -40.2472 H   0  0  0  0  0  0
  -27.8215   34.3874  -41.1520 H   0  0  0  0  0  0
  -29.6410   36.2254  -44.8125 H   0  0  0  0  0  0
  -28.7816   34.9101  -46.7543 H   0  0  0  0  0  0
  -28.6104   32.9445  -47.9414 H   0  0  0  0  0  0
  -27.5408   31.6340  -49.7053 H   0  0  0  0  0  0
  -25.1437   32.3988  -45.4535 H   0  0  0  0  0  0
  1  2  1  0  0  0
  1 30  1  0  0  0
  2  3  1  0  0  0
  2 31  1  0  0  0
  3  4  2  0  0  0
  3  5  1  0  0  0
  5  6  2  0  0  0
  5 14  1  0  0  0
  6  7  1  0  0  0
  6 32  1  0  0  0
  7  8  2  0  0  0
  7 33  1  0  0  0
  8  9  1  0  0  0
  8 13  1  0  0  0
  9 10  1  0  0  0
  9 34  1  0  0  0
  9 35  1  0  0  0
 10 11  1  0  0  0
 10 36  1  0  0  0
 10 37  1  0  0  0
 11 12  1  0  0  0
 11 15  1  0  0  0
 11 38  1  0  0  0
 12 13  1  0  0  0
 12 39  1  0  0  0
 12 40  1  0  0  0
 13 14  2  0  0  0
 14 41  1  0  0  0
 15 16  1  0  0  0
 15 42  1  0  0  0
 16 17  2  0  0  0
 16 21  1  0  0  0
 17 18  1  0  0  0
 18 19  2  0  0  0
 18 43  1  0  0  0
 19 20  1  0  0  0
 19 44  1  0  0  0
 20 21  2  0  0  0
 20 22  1  0  0  0
 22 23  2  0  0  0
 22 29  1  0  0  0
 23 24  1  0  0  0
 23 45  1  0  0  0
 24 25  2  0  0  0
 24 46  1  0  0  0
 25 26  1  0  0  0
 25 27  1  0  0  0
 27 28  1  0  0  0
 27 29  2  0  0  0
 29 47  1  0  0  0
M  END
> <s_m_entry_id>
53085

> <s_m_entry_name>
dock_pv.304

> <s_m_Source_Path>
/home/csk/Desktop/cluster/DUD-E-result/hdac8

> <s_m_Source_File>
dock_pv.maegz

> <i_m_Source_File_Index>
304

> <chembl_id>
CHEMBL3694296

> <chembl_pref_name>
None

> <i_lp_mmshare_version>
53161

> <i_f3d_flags>
0

> <r_lp_tautomer_probability>
0.999999987636

> <s_lp_Force_Field>
OPLS_2005

> <r_lp_Energy>
27.461204

> <b_lp_Chiralities_Consistent>
1

> <s_lp_Variant>
CHEMBL3192_lig1047-2

> <s_i_glide_gridfile>
glide-grid_3f07

> <i_i_glide_lignum>
1134

> <i_i_glide_rotatable_bonds>
6

> <r_i_docking_score>
-7.20161760252013

> <r_i_glide_ligand_efficiency>
-0.248331641466212

> <r_i_glide_ligand_efficiency_sa>
-0.762953479570463

> <r_i_glide_ligand_efficiency_ln>
-1.64898781371136

> <r_i_glide_gscore>
-7.20161760252013

> <r_i_glide_lipo>
-1.14988453690848

> <r_i_glide_hbond>
-0.608

> <r_i_glide_metal>
-1.64892439122687

> <r_i_glide_rewards>
-0.815285843357464

> <r_i_glide_evdw>
-21.9282875061035

> <r_i_glide_ecoul>
-14.6216831207275

> <r_i_glide_erotb>
0.578581068642931

> <r_i_glide_esite>
-0.268437056255943

> <r_i_glide_emodel>
-52.0465519854811

> <r_i_glide_energy>
-36.5499706268311

> <r_i_glide_einternal>
5.41490507125854

> <i_i_glide_confnum>
1

> <i_i_glide_posenum>
176

> <r_i_glide_eff_state_penalty>
0

> <s_user_duplicate_titles>
CHEMBL3192_lig1047

> <s_m_subgroup_title>
dock_pv

> <s_m_subgroupid>
dock_pv

> <b_m_subgroup_collapsed>
1

$$$$
CHEMBL3192_lig268
                    3D
 Schrodinger Suite 2021-1.
 53 55  0  0  1  0            999 V2000
  -26.6269   32.4272  -42.9217 N   0  0  0  0  0  0
  -27.4954   33.7152  -41.3141 N   0  0  0  0  0  0
  -27.4530   34.4103  -42.4368 C   0  0  0  0  0  0
  -26.9292   33.6516  -43.4829 C   0  0  0  0  0  0
  -27.0122   32.5326  -41.6027 C   0  0  0  0  0  0
  -26.8749   31.4526  -40.5967 C   0  0  0  0  0  0
  -25.7812   31.4839  -39.7312 C   0  0  0  0  0  0
  -25.6055   30.4699  -38.7978 C   0  0  0  0  0  0
  -26.5375   29.4393  -38.7123 C   0  0  0  0  0  0
  -27.6642   29.4048  -39.5431 C   0  0  0  0  0  0
  -27.8132   30.4173  -40.5011 C   0  0  0  0  0  0
  -28.6995   28.3555  -39.4021 C   0  0  0  0  0  0
  -28.7845   27.4718  -38.3809 C   0  0  0  0  0  0
  -29.8131   26.4676  -38.2570 C   0  0  0  0  0  0
  -29.8706   25.9033  -37.0425 N   0  0  0  0  0  0
  -30.5661   26.1485  -39.1810 O   0  0  0  0  0  0
  -30.8005   24.8689  -36.8324 O   0  0  0  0  0  0
  -27.9409   35.8412  -42.4421 C   0  0  0  0  0  0
  -26.6772   33.9802  -44.9402 C   0  0  0  0  0  0
  -26.0420   31.2585  -43.5819 C   0  0  0  0  0  0
  -24.5815   30.9615  -43.1605 C   0  0  0  0  0  0
  -23.5984   31.9304  -43.6633 N   0  0  0  0  0  0
  -23.4737   33.1217  -42.8042 C   0  0  0  0  0  0
  -22.3956   34.0943  -43.3308 C   0  0  0  0  0  0
  -21.1473   33.4228  -43.4604 O   0  0  0  0  0  0
  -21.2230   32.3112  -44.3468 C   0  0  0  0  0  0
  -22.2803   31.3023  -43.8474 C   0  0  0  0  0  0
  -25.0616   32.2902  -39.7831 H   0  0  0  0  0  0
  -24.7491   30.4891  -38.1392 H   0  0  0  0  0  0
  -26.3631   28.6681  -37.9810 H   0  0  0  0  0  0
  -28.6647   30.4164  -41.1667 H   0  0  0  0  0  0
  -29.4318   28.3260  -40.1947 H   0  0  0  0  0  0
  -28.0635   27.4889  -37.5810 H   0  0  0  0  0  0
  -29.3118   26.1222  -36.2273 H   0  0  0  0  0  0
  -30.2722   24.0655  -36.9048 H   0  0  0  0  0  0
  -27.6140   36.3836  -43.3288 H   0  0  0  0  0  0
  -29.0291   35.8974  -42.4140 H   0  0  0  0  0  0
  -27.5688   36.3976  -41.5815 H   0  0  0  0  0  0
  -27.2574   33.3403  -45.6049 H   0  0  0  0  0  0
  -26.9423   35.0092  -45.1819 H   0  0  0  0  0  0
  -25.6266   33.8540  -45.2039 H   0  0  0  0  0  0
  -26.6758   30.4020  -43.3530 H   0  0  0  0  0  0
  -26.0992   31.3899  -44.6621 H   0  0  0  0  0  0
  -24.4920   30.8338  -42.0809 H   0  0  0  0  0  0
  -24.3481   29.9826  -43.5813 H   0  0  0  0  0  0
  -24.4167   33.6549  -42.7311 H   0  0  0  0  0  0
  -23.2298   32.8176  -41.7848 H   0  0  0  0  0  0
  -22.2736   34.9251  -42.6356 H   0  0  0  0  0  0
  -22.6970   34.5283  -44.2860 H   0  0  0  0  0  0
  -20.2443   31.8321  -44.3812 H   0  0  0  0  0  0
  -21.4460   32.6426  -45.3629 H   0  0  0  0  0  0
  -21.9474   30.8691  -42.9037 H   0  0  0  0  0  0
  -22.3581   30.4763  -44.5558 H   0  0  0  0  0  0
  1  4  1  0  0  0
  1  5  1  0  0  0
  1 20  1  0  0  0
  2  3  1  0  0  0
  2  5  2  0  0  0
  3  4  2  0  0  0
  3 18  1  0  0  0
  4 19  1  0  0  0
  5  6  1  0  0  0
  6  7  2  0  0  0
  6 11  1  0  0  0
  7  8  1  0  0  0
  7 28  1  0  0  0
  8  9  2  0  0  0
  8 29  1  0  0  0
  9 10  1  0  0  0
  9 30  1  0  0  0
 10 11  2  0  0  0
 10 12  1  0  0  0
 11 31  1  0  0  0
 12 13  2  0  0  0
 12 32  1  0  0  0
 13 14  1  0  0  0
 13 33  1  0  0  0
 14 15  1  0  0  0
 14 16  2  0  0  0
 15 17  1  0  0  0
 15 34  1  0  0  0
 17 35  1  0  0  0
 18 36  1  0  0  0
 18 37  1  0  0  0
 18 38  1  0  0  0
 19 39  1  0  0  0
 19 40  1  0  0  0
 19 41  1  0  0  0
 20 21  1  0  0  0
 20 42  1  0  0  0
 20 43  1  0  0  0
 21 22  1  0  0  0
 21 44  1  0  0  0
 21 45  1  0  0  0
 22 23  1  0  0  0
 22 27  1  0  0  0
 23 24  1  0  0  0
 23 46  1  0  0  0
 23 47  1  0  0  0
 24 25  1  0  0  0
 24 48  1  0  0  0
 24 49  1  0  0  0
 25 26  1  0  0  0
 26 27  1  0  0  0
 26 50  1  0  0  0
 26 51  1  0  0  0
 27 52  1  0  0  0
 27 53  1  0  0  0
M  END
> <s_m_entry_id>
53086

> <s_m_entry_name>
dock_pv.305

> <s_m_Source_Path>
/home/csk/Desktop/cluster/DUD-E-result/hdac8

> <s_m_Source_File>
dock_pv.maegz

> <i_m_Source_File_Index>
305

> <chembl_id>
CHEMBL1095718

> <chembl_pref_name>
None

> <i_lp_mmshare_version>
53161

> <i_f3d_flags>
0

> <r_lp_tautomer_probability>
1

> <s_lp_Force_Field>
OPLS_2005

> <r_lp_Energy>
40.193525

> <b_lp_Chiralities_Consistent>
1

> <s_lp_Variant>
CHEMBL3192_lig268-1

> <s_i_glide_gridfile>
glide-grid_3f07

> <i_i_glide_lignum>
281

> <i_i_glide_rotatable_bonds>
8

> <r_i_docking_score>
-7.18498403588456

> <r_i_glide_ligand_efficiency>
-0.266110519847576

> <r_i_glide_ligand_efficiency_sa>
-0.798331558665672

> <r_i_glide_ligand_efficiency_ln>
-1.67254582983443

> <r_i_glide_gscore>
-7.18498403588456

> <r_i_glide_lipo>
-0.962127542793229

> <r_i_glide_hbond>
-0.361852993168193

> <r_i_glide_metal>
-2.3

> <r_i_glide_rewards>
-1.13849876562968

> <r_i_glide_evdw>
-30.0276584625244

> <r_i_glide_ecoul>
-11.8798942565918

> <r_i_glide_erotb>
0.9840804585989

> <r_i_glide_esite>
-0.123218131277366

> <r_i_glide_emodel>
-64.7228089665908

> <r_i_glide_energy>
-41.9075527191162

> <r_i_glide_einternal>
4.85136413574219

> <i_i_glide_confnum>
8

> <i_i_glide_posenum>
394

> <r_i_glide_eff_state_penalty>
0

> <s_user_duplicate_titles>
CHEMBL3192_lig268,625971

> <s_m_subgroup_title>
dock_pv

> <s_m_subgroupid>
dock_pv

> <b_m_subgroup_collapsed>
1

$$$$
CHEMBL3192_lig279
                    3D
 Schrodinger Suite 2021-1.
 43 43  0  0  1  0            999 V2000
  -24.7580   31.6689  -48.1592 C   0  0  0  0  0  0
  -26.1211   31.8151  -48.4009 C   0  0  0  0  0  0
  -27.0458   31.6170  -47.3801 C   0  0  0  0  0  0
  -26.6068   31.2690  -46.1054 C   0  0  0  0  0  0
  -25.2345   31.1128  -45.8461 C   0  0  0  0  0  0
  -24.3168   31.3150  -46.8869 C   0  0  0  0  0  0
  -24.7264   30.7163  -44.4784 C   0  0  0  0  0  0
  -25.4896   31.1253  -43.4367 N   0  0  0  0  0  0
  -25.1533   31.1431  -42.1296 C   0  0  0  0  0  0
  -26.1900   31.5280  -41.3693 N   0  0  0  0  0  0
  -26.1094   31.9143  -39.9572 C   0  0  0  0  0  0
  -25.7855   30.7654  -38.9704 C   0  0  0  0  0  0
  -26.5463   29.4373  -39.1801 C   0  0  0  0  0  0
  -23.6787   30.0690  -44.3810 O   0  0  0  0  0  0
  -24.0466   30.8690  -41.6651 O   0  0  0  0  0  0
  -28.0771   29.5720  -39.2480 C   0  0  0  0  0  0
  -28.8066   28.2219  -39.3689 C   0  0  0  0  0  0
  -29.0891   27.5235  -38.0168 C   0  0  0  0  0  0
  -30.0369   26.3143  -38.1140 C   0  0  0  0  0  0
  -30.2130   25.5892  -36.9982 N   0  0  0  0  0  0
  -31.0563   24.4690  -37.0642 O   0  0  0  0  0  0
  -30.6129   26.0690  -39.1810 O   0  0  0  0  0  0
  -24.0447   31.8281  -48.9548 H   0  0  0  0  0  0
  -26.4658   32.0857  -49.3885 H   0  0  0  0  0  0
  -28.1023   31.7264  -47.5809 H   0  0  0  0  0  0
  -27.3495   31.1056  -45.3379 H   0  0  0  0  0  0
  -23.2545   31.2025  -46.7149 H   0  0  0  0  0  0
  -26.3644   31.5600  -43.6768 H   0  0  0  0  0  0
  -27.1093   31.5511  -41.7810 H   0  0  0  0  0  0
  -27.0805   32.3373  -39.7028 H   0  0  0  0  0  0
  -25.3775   32.7181  -39.8476 H   0  0  0  0  0  0
  -25.9564   31.1258  -37.9548 H   0  0  0  0  0  0
  -24.7151   30.5573  -39.0172 H   0  0  0  0  0  0
  -26.2750   28.7516  -38.3775 H   0  0  0  0  0  0
  -26.1956   28.9663  -40.0992 H   0  0  0  0  0  0
  -28.3367   30.1801  -40.1150 H   0  0  0  0  0  0
  -28.4430   30.1207  -38.3832 H   0  0  0  0  0  0
  -28.2111   27.5461  -39.9810 H   0  0  0  0  0  0
  -29.7331   28.3950  -39.9189 H   0  0  0  0  0  0
  -29.5397   28.2333  -37.3212 H   0  0  0  0  0  0
  -28.1414   27.2129  -37.5810 H   0  0  0  0  0  0
  -29.7812   25.7188  -36.0924 H   0  0  0  0  0  0
  -30.4473   23.7282  -37.1809 H   0  0  0  0  0  0
  1  6  1  0  0  0
  1  2  2  0  0  0
  1 23  1  0  0  0
  2  3  1  0  0  0
  2 24  1  0  0  0
  3  4  2  0  0  0
  3 25  1  0  0  0
  4  5  1  0  0  0
  4 26  1  0  0  0
  5  6  2  0  0  0
  5  7  1  0  0  0
  6 27  1  0  0  0
  7 14  2  0  0  0
  7  8  1  0  0  0
  8  9  1  0  0  0
  8 28  1  0  0  0
  9 15  2  0  0  0
  9 10  1  0  0  0
 10 11  1  0  0  0
 10 29  1  0  0  0
 11 12  1  0  0  0
 11 30  1  0  0  0
 11 31  1  0  0  0
 12 13  1  0  0  0
 12 32  1  0  0  0
 12 33  1  0  0  0
 13 16  1  0  0  0
 13 34  1  0  0  0
 13 35  1  0  0  0
 16 17  1  0  0  0
 16 36  1  0  0  0
 16 37  1  0  0  0
 17 18  1  0  0  0
 17 38  1  0  0  0
 17 39  1  0  0  0
 18 19  1  0  0  0
 18 40  1  0  0  0
 18 41  1  0  0  0
 19 20  1  0  0  0
 19 22  2  0  0  0
 20 21  1  0  0  0
 20 42  1  0  0  0
 21 43  1  0  0  0
M  END
> <s_m_entry_id>
53087

> <s_m_entry_name>
dock_pv.306

> <s_m_Source_Path>
/home/csk/Desktop/cluster/DUD-E-result/hdac8

> <s_m_Source_File>
dock_pv.maegz

> <i_m_Source_File_Index>
306

> <chembl_id>
CHEMBL1083440

> <chembl_pref_name>
None

> <i_lp_mmshare_version>
53161

> <i_f3d_flags>
0

> <r_lp_tautomer_probability>
1

> <s_lp_Force_Field>
OPLS_2005

> <r_lp_Energy>
22.720687

> <b_lp_Chiralities_Consistent>
1

> <s_lp_Variant>
CHEMBL3192_lig279-1

> <s_i_glide_gridfile>
glide-grid_3f07

> <i_i_glide_lignum>
292

> <i_i_glide_rotatable_bonds>
13

> <r_i_docking_score>
-7.17983722895308

> <r_i_glide_ligand_efficiency>
-0.326356237679685

> <r_i_glide_ligand_efficiency_sa>
-0.914463012840981

> <r_i_glide_ligand_efficiency_ln>
-1.75501410968229

> <r_i_glide_gscore>
-7.17983722895308

> <r_i_glide_lipo>
-1.07386486710321

> <r_i_glide_hbond>
-0.504088667572672

> <r_i_glide_metal>
-2.3

> <r_i_glide_rewards>
-1.34031067555598

> <r_i_glide_evdw>
-30.8385181427002

> <r_i_glide_ecoul>
-16.4358406066895

> <r_i_glide_erotb>
2.15263489533213

> <r_i_glide_esite>
-0.106905915914911

> <r_i_glide_emodel>
-70.4119389369589

> <r_i_glide_energy>
-47.2743587493896

> <r_i_glide_einternal>
5.11366891860962

> <i_i_glide_confnum>
88

> <i_i_glide_posenum>
95

> <r_i_glide_eff_state_penalty>
0

> <s_user_duplicate_titles>
CHEMBL3192_lig279,632308

> <s_m_subgroup_title>
dock_pv

> <s_m_subgroupid>
dock_pv

> <b_m_subgroup_collapsed>
1

$$$$
CHEMBL3192_lig7
                    3D
 Schrodinger Suite 2021-1.
 53 55  0  0  1  0            999 V2000
  -26.7883   31.5853  -42.3902 C   0  0  0  0  0  0
  -25.8481   32.3597  -42.9777 C   0  0  0  0  0  0
  -26.0651   33.0739  -44.2373 C   0  0  0  0  0  0
  -27.4130   33.6823  -44.5220 C   0  0  0  0  0  0
  -25.1568   33.0919  -45.0666 O   0  0  0  0  0  0
  -28.0685   33.6229  -45.7836 C   0  0  0  0  0  0
  -29.2691   34.3382  -45.9393 C   0  0  0  0  0  0
  -29.8127   35.0957  -44.9069 C   0  0  0  0  0  0
  -29.1593   35.1649  -43.6843 C   0  0  0  0  0  0
  -27.9695   34.4690  -43.4961 C   0  0  0  0  0  0
  -27.5885   32.8929  -46.8748 N   0  0  0  0  0  0
  -27.2126   31.4683  -46.8049 C   0  0  0  0  0  0
  -26.0562   31.1269  -47.7737 C   0  0  0  0  0  0
  -26.4429   31.4092  -49.1565 N   0  0  0  0  0  0
  -26.7666   32.8339  -49.2597 C   0  0  0  0  0  0
  -27.8927   33.2386  -48.2783 C   0  0  0  0  0  0
  -25.3411   31.1000  -50.0617 C   0  0  0  0  0  0
  -25.6737   31.2152  -40.1602 C   0  0  0  0  0  0
  -26.6728   30.8979  -41.0895 C   0  0  0  0  0  0
  -27.6130   29.9457  -40.8325 N   0  0  0  0  0  0
  -27.5896   29.2916  -39.6391 C   0  0  0  0  0  0
  -26.6182   29.5761  -38.6740 C   0  0  0  0  0  0
  -25.6517   30.5445  -38.9394 C   0  0  0  0  0  0
  -28.6455   28.2775  -39.4271 C   0  0  0  0  0  0
  -28.7435   27.4278  -38.3776 C   0  0  0  0  0  0
  -29.8130   26.4690  -38.2297 C   0  0  0  0  0  0
  -30.0175   26.0690  -36.9647 N   0  0  0  0  0  0
  -30.4914   26.0690  -39.1810 O   0  0  0  0  0  0
  -31.0129   25.1074  -36.7216 O   0  0  0  0  0  0
  -27.7343   31.4423  -42.8896 H   0  0  0  0  0  0
  -24.8681   32.4842  -42.5413 H   0  0  0  0  0  0
  -29.8130   34.3039  -46.8716 H   0  0  0  0  0  0
  -30.7370   35.6333  -45.0615 H   0  0  0  0  0  0
  -29.5665   35.7693  -42.8870 H   0  0  0  0  0  0
  -27.4712   34.5681  -42.5406 H   0  0  0  0  0  0
  -26.9653   31.1546  -45.7928 H   0  0  0  0  0  0
  -28.0875   30.8719  -47.0706 H   0  0  0  0  0  0
  -25.8131   30.0698  -47.6804 H   0  0  0  0  0  0
  -25.1582   31.6834  -47.4961 H   0  0  0  0  0  0
  -25.8823   33.4471  -49.0723 H   0  0  0  0  0  0
  -27.0891   33.0544  -50.2784 H   0  0  0  0  0  0
  -28.0690   34.3109  -48.3711 H   0  0  0  0  0  0
  -28.8203   32.7446  -48.5735 H   0  0  0  0  0  0
  -24.4605   31.7113  -49.8546 H   0  0  0  0  0  0
  -25.6368   31.2703  -51.0979 H   0  0  0  0  0  0
  -25.0485   30.0560  -49.9692 H   0  0  0  0  0  0
  -24.9371   31.9807  -40.3553 H   0  0  0  0  0  0
  -26.6130   29.0654  -37.7264 H   0  0  0  0  0  0
  -24.8975   30.7847  -38.2036 H   0  0  0  0  0  0
  -29.4001   28.2492  -40.1991 H   0  0  0  0  0  0
  -28.0154   27.4348  -37.5810 H   0  0  0  0  0  0
  -29.5050   26.3449  -36.1357 H   0  0  0  0  0  0
  -30.5183   24.2907  -36.5993 H   0  0  0  0  0  0
  1  2  2  0  0  0
  1 19  1  0  0  0
  1 30  1  0  0  0
  2  3  1  0  0  0
  2 31  1  0  0  0
  3  5  2  0  0  0
  3  4  1  0  0  0
  4 10  1  0  0  0
  4  6  2  0  0  0
  6 11  1  0  0  0
  6  7  1  0  0  0
  7  8  2  0  0  0
  7 32  1  0  0  0
  8  9  1  0  0  0
  8 33  1  0  0  0
  9 10  2  0  0  0
  9 34  1  0  0  0
 10 35  1  0  0  0
 11 12  1  0  0  0
 11 16  1  0  0  0
 12 13  1  0  0  0
 12 36  1  0  0  0
 12 37  1  0  0  0
 13 14  1  0  0  0
 13 38  1  0  0  0
 13 39  1  0  0  0
 14 15  1  0  0  0
 14 17  1  0  0  0
 15 16  1  0  0  0
 15 40  1  0  0  0
 15 41  1  0  0  0
 16 42  1  0  0  0
 16 43  1  0  0  0
 17 44  1  0  0  0
 17 45  1  0  0  0
 17 46  1  0  0  0
 18 19  2  0  0  0
 18 23  1  0  0  0
 18 47  1  0  0  0
 19 20  1  0  0  0
 20 21  2  0  0  0
 21 22  1  0  0  0
 21 24  1  0  0  0
 22 23  2  0  0  0
 22 48  1  0  0  0
 23 49  1  0  0  0
 24 25  2  0  0  0
 24 50  1  0  0  0
 25 26  1  0  0  0
 25 51  1  0  0  0
 26 27  1  0  0  0
 26 28  2  0  0  0
 27 29  1  0  0  0
 27 52  1  0  0  0
 29 53  1  0  0  0
M  END
> <s_m_entry_id>
53088

> <s_m_entry_name>
dock_pv.307

> <s_m_Source_Path>
/home/csk/Desktop/cluster/DUD-E-result/hdac8

> <s_m_Source_File>
dock_pv.maegz

> <i_m_Source_File_Index>
307

> <chembl_id>
CHEMBL577513

> <chembl_pref_name>
None

> <i_lp_mmshare_version>
53161

> <i_f3d_flags>
0

> <r_lp_tautomer_probability>
1

> <s_lp_Force_Field>
OPLS_2005

> <r_lp_Energy>
51.133887

> <b_lp_Chiralities_Consistent>
1

> <s_lp_Variant>
CHEMBL3192_lig7-1

> <s_i_glide_gridfile>
glide-grid_3f07

> <i_i_glide_lignum>
7

> <i_i_glide_rotatable_bonds>
8

> <r_i_docking_score>
-7.17367120145311

> <r_i_glide_ligand_efficiency>
-0.2473679724639

> <r_i_glide_ligand_efficiency_sa>
-0.759992783083594

> <r_i_glide_ligand_efficiency_ln>
-1.6425887965266

> <r_i_glide_gscore>
-7.17367120145311

> <r_i_glide_lipo>
-1.18393209140987

> <r_i_glide_hbond>
-0.340087318912366

> <r_i_glide_metal>
-2.3

> <r_i_glide_rewards>
-0.891594624834459

> <r_i_glide_evdw>
-34.1482925415039

> <r_i_glide_ecoul>
-10.2535667419434

> <r_i_glide_erotb>
0.887392472070279

> <r_i_glide_esite>
-0.1

> <r_i_glide_emodel>
-63.3522378224445

> <r_i_glide_energy>
-44.4018592834473

> <r_i_glide_einternal>
10.5534620285034

> <i_i_glide_confnum>
46

> <i_i_glide_posenum>
331

> <r_i_glide_eff_state_penalty>
0

> <s_user_duplicate_titles>
CHEMBL3192_lig7

> <s_m_subgroup_title>
dock_pv

> <s_m_subgroupid>
dock_pv

> <b_m_subgroup_collapsed>
1

$$$$
CHEMBL3192_lig366
                    3D
 Schrodinger Suite 2021-1.
 44 45  0  0  1  0            999 V2000
  -28.2134   32.9147  -47.2429 C   0  0  0  0  0  0
  -27.4126   31.3034  -47.1182 S   0  0  0  0  0  0
  -26.0566   31.9288  -46.0984 C   0  0  0  0  0  0
  -25.5223   33.4248  -46.9965 S   0  0  0  0  0  0
  -27.1359   33.9087  -47.6822 C   0  0  0  0  0  0
  -25.1740   31.8689  -43.8047 C   0  0  2  0  0  0
  -26.4368   32.2039  -44.6342 C   0  0  0  0  0  0
  -24.9215   30.9182  -45.9174 C   0  0  0  0  0  0
  -24.1801   31.3563  -44.7464 N   0  0  2  0  0  0
  -25.4857   30.8208  -42.7052 C   0  0  0  0  0  0
  -25.3958   31.2509  -41.4354 N   0  0  0  0  0  0
  -25.8130   29.6691  -43.0059 O   0  0  0  0  0  0
  -25.6090   30.4514  -40.2307 C   0  0  0  0  0  0
  -27.0015   29.7961  -40.1228 C   0  0  0  0  0  0
  -27.3685   29.4263  -38.6769 C   0  0  0  0  0  0
  -28.7072   28.6669  -38.5543 C   0  0  0  0  0  0
  -28.5390   27.1453  -38.6584 C   0  0  0  0  0  0
  -29.8130   26.3691  -38.2910 C   0  0  0  0  0  0
  -29.9963   26.0690  -36.9951 N   0  0  0  0  0  0
  -30.6129   26.0690  -39.1810 O   0  0  0  0  0  0
  -31.1544   25.3705  -36.6248 O   0  0  0  0  0  0
  -29.0363   32.8694  -47.9575 H   0  0  0  0  0  0
  -28.6259   33.1710  -46.2666 H   0  0  0  0  0  0
  -27.0329   33.9030  -48.7679 H   0  0  0  0  0  0
  -27.3781   34.9263  -47.3756 H   0  0  0  0  0  0
  -24.7595   32.7651  -43.3384 H   0  0  0  0  0  0
  -27.3009   31.5984  -44.3504 H   0  0  0  0  0  0
  -26.7240   33.2483  -44.5090 H   0  0  0  0  0  0
  -24.2800   30.8552  -46.7973 H   0  0  0  0  0  0
  -25.3241   29.9220  -45.7251 H   0  0  0  0  0  0
  -23.6561   30.5995  -44.3307 H   0  0  0  0  0  0
  -25.1132   32.2078  -41.2786 H   0  0  0  0  0  0
  -25.4753   31.1401  -39.3942 H   0  0  0  0  0  0
  -24.8199   29.7080  -40.1057 H   0  0  0  0  0  0
  -27.0283   28.9046  -40.7515 H   0  0  0  0  0  0
  -27.7598   30.4710  -40.5229 H   0  0  0  0  0  0
  -27.4130   30.3487  -38.0991 H   0  0  0  0  0  0
  -26.5624   28.8486  -38.2214 H   0  0  0  0  0  0
  -29.4129   29.0378  -39.2986 H   0  0  0  0  0  0
  -29.1510   28.8690  -37.5810 H   0  0  0  0  0  0
  -27.7360   26.8690  -37.9811 H   0  0  0  0  0  0
  -28.2007   26.8588  -39.6523 H   0  0  0  0  0  0
  -29.4077   26.3252  -36.2112 H   0  0  0  0  0  0
  -31.6738   26.0244  -36.1481 H   0  0  0  0  0  0
  1  5  1  0  0  0
  1  2  1  0  0  0
  1 22  1  0  0  0
  1 23  1  0  0  0
  2  3  1  0  0  0
  3  7  1  0  0  0
  3  8  1  0  0  0
  3  4  1  0  0  0
  4  5  1  0  0  0
  5 24  1  0  0  0
  5 25  1  0  0  0
  6  7  1  0  0  0
  6  9  1  0  0  0
  6 10  1  0  0  0
  6 26  1  0  0  0
  7 27  1  0  0  0
  7 28  1  0  0  0
  8  9  1  0  0  0
  8 29  1  0  0  0
  8 30  1  0  0  0
  9 31  1  0  0  0
 10 11  1  0  0  0
 10 12  2  0  0  0
 11 13  1  0  0  0
 11 32  1  0  0  0
 13 14  1  0  0  0
 13 33  1  0  0  0
 13 34  1  0  0  0
 14 15  1  0  0  0
 14 35  1  0  0  0
 14 36  1  0  0  0
 15 16  1  0  0  0
 15 37  1  0  0  0
 15 38  1  0  0  0
 16 17  1  0  0  0
 16 39  1  0  0  0
 16 40  1  0  0  0
 17 18  1  0  0  0
 17 41  1  0  0  0
 17 42  1  0  0  0
 18 19  1  0  0  0
 18 20  2  0  0  0
 19 21  1  0  0  0
 19 43  1  0  0  0
 21 44  1  0  0  0
M  END
> <s_m_entry_id>
53089

> <s_m_entry_name>
dock_pv.308

> <s_m_Source_Path>
/home/csk/Desktop/cluster/DUD-E-result/hdac8

> <s_m_Source_File>
dock_pv.maegz

> <i_m_Source_File_Index>
308

> <chembl_id>
CHEMBL1835342

> <chembl_pref_name>
None

> <i_lp_mmshare_version>
53161

> <i_f3d_flags>
0

> <r_lp_tautomer_probability>
1

> <s_lp_Force_Field>
OPLS_2005

> <r_lp_Energy>
37.382146

> <b_lp_Chiralities_Consistent>
1

> <s_lp_Variant>
CHEMBL3192_lig366-1

> <s_i_glide_gridfile>
glide-grid_3f07

> <i_i_glide_lignum>
385

> <i_i_glide_rotatable_bonds>
10

> <r_i_docking_score>
-7.17366458442516

> <r_i_glide_ligand_efficiency>
-0.341603075448817

> <r_i_glide_ligand_efficiency_sa>
-0.942456982625443

> <r_i_glide_ligand_efficiency_ln>
-1.77367407274493

> <r_i_glide_gscore>
-7.17366458442516

> <r_i_glide_lipo>
-1.02962914669175

> <r_i_glide_hbond>
-0.386739761836287

> <r_i_glide_metal>
-2.3

> <r_i_glide_rewards>
-1.26873356353975

> <r_i_glide_evdw>
-28.5475234985352

> <r_i_glide_ecoul>
-13.4474048614502

> <r_i_glide_erotb>
1.35592479178691

> <r_i_glide_esite>
-0.1

> <r_i_glide_emodel>
-57.0227245237259

> <r_i_glide_energy>
-41.9949283599854

> <r_i_glide_einternal>
13.0061540603638

> <i_i_glide_confnum>
70

> <i_i_glide_posenum>
345

> <r_i_glide_eff_state_penalty>
0

> <s_user_duplicate_titles>
CHEMBL3192_lig366

> <s_m_subgroup_title>
dock_pv

> <s_m_subgroupid>
dock_pv

> <b_m_subgroup_collapsed>
1

$$$$
CHEMBL3192_lig732
                    3D
 Schrodinger Suite 2021-1.
 44 45  0  0  1  0            999 V2000
  -26.4314   29.9998  -39.0470 C   0  0  0  0  0  0
  -27.6956   30.5231  -39.7675 C   0  0  0  0  0  0
  -29.0126   29.8292  -39.3748 C   0  0  0  0  0  0
  -29.0130   28.2891  -39.5116 C   0  0  0  0  0  0
  -29.1149   27.4929  -38.1724 C   0  0  0  0  0  0
  -30.1036   26.3086  -38.1691 C   0  0  0  0  0  0
  -30.2130   25.5933  -37.0377 N   0  0  0  0  0  0
  -30.7686   26.0690  -39.1810 O   0  0  0  0  0  0
  -31.0576   24.4698  -37.0412 O   0  0  0  0  0  0
  -25.1651   30.8765  -39.2165 C   0  0  0  0  0  0
  -24.6576   31.0579  -40.6391 C   0  0  0  0  0  0
  -25.2885   30.8690  -41.7654 N   0  0  0  0  0  0
  -24.4099   31.2674  -42.6656 C   0  0  0  0  0  0
  -23.2482   31.6690  -42.1887 N   0  0  0  0  0  0
  -23.4024   31.5386  -40.8089 O   0  0  0  0  0  0
  -24.7287   31.2615  -44.1331 C   0  0  0  0  0  0
  -23.7093   31.2682  -45.0924 C   0  0  0  0  0  0
  -24.0213   31.2695  -46.4498 C   0  0  0  0  0  0
  -25.3498   31.2690  -46.8748 C   0  0  0  0  0  0
  -26.3733   31.2674  -45.9166 C   0  0  0  0  0  0
  -26.0626   31.2588  -44.5605 C   0  0  0  0  0  0
  -25.5640   31.2578  -48.2398 O   0  0  0  0  0  0
  -26.9004   31.2084  -48.7312 C   0  0  0  0  0  0
  -26.6467   29.9199  -37.9810 H   0  0  0  0  0  0
  -26.2085   28.9849  -39.3773 H   0  0  0  0  0  0
  -27.5843   30.4149  -40.8450 H   0  0  0  0  0  0
  -27.7950   31.5938  -39.5855 H   0  0  0  0  0  0
  -29.7944   30.2329  -40.0211 H   0  0  0  0  0  0
  -29.3221   30.1359  -38.3810 H   0  0  0  0  0  0
  -28.1327   27.9480  -40.0570 H   0  0  0  0  0  0
  -29.8377   28.0589  -40.1811 H   0  0  0  0  0  0
  -29.4218   28.1559  -37.3630 H   0  0  0  0  0  0
  -28.1207   27.1407  -37.8982 H   0  0  0  0  0  0
  -29.7058   25.7151  -36.1706 H   0  0  0  0  0  0
  -30.4544   23.7282  -37.1810 H   0  0  0  0  0  0
  -25.3503   31.8587  -38.7810 H   0  0  0  0  0  0
  -24.3675   30.4414  -38.6130 H   0  0  0  0  0  0
  -22.6707   31.2711  -44.7923 H   0  0  0  0  0  0
  -23.2254   31.2719  -47.1800 H   0  0  0  0  0  0
  -27.4139   31.2677  -46.2030 H   0  0  0  0  0  0
  -26.8700   31.2603  -43.8424 H   0  0  0  0  0  0
  -26.8867   31.1912  -49.8208 H   0  0  0  0  0  0
  -27.4129   30.3058  -48.3949 H   0  0  0  0  0  0
  -27.4767   32.0822  -48.4234 H   0  0  0  0  0  0
  1  2  1  0  0  0
  1 10  1  0  0  0
  1 24  1  0  0  0
  1 25  1  0  0  0
  2  3  1  0  0  0
  2 26  1  0  0  0
  2 27  1  0  0  0
  3  4  1  0  0  0
  3 28  1  0  0  0
  3 29  1  0  0  0
  4  5  1  0  0  0
  4 30  1  0  0  0
  4 31  1  0  0  0
  5  6  1  0  0  0
  5 32  1  0  0  0
  5 33  1  0  0  0
  6  7  1  0  0  0
  6  8  2  0  0  0
  7  9  1  0  0  0
  7 34  1  0  0  0
  9 35  1  0  0  0
 10 11  1  0  0  0
 10 36  1  0  0  0
 10 37  1  0  0  0
 11 12  2  0  0  0
 11 15  1  0  0  0
 12 13  1  0  0  0
 13 14  2  0  0  0
 13 16  1  0  0  0
 14 15  1  0  0  0
 16 17  2  0  0  0
 16 21  1  0  0  0
 17 18  1  0  0  0
 17 38  1  0  0  0
 18 19  2  0  0  0
 18 39  1  0  0  0
 19 20  1  0  0  0
 19 22  1  0  0  0
 20 21  2  0  0  0
 20 40  1  0  0  0
 21 41  1  0  0  0
 22 23  1  0  0  0
 23 42  1  0  0  0
 23 43  1  0  0  0
 23 44  1  0  0  0
M  END
> <s_m_entry_id>
53091

> <s_m_entry_name>
dock_pv.310

> <s_m_Source_Path>
/home/csk/Desktop/cluster/DUD-E-result/hdac8

> <s_m_Source_File>
dock_pv.maegz

> <i_m_Source_File_Index>
310

> <chembl_id>
CHEMBL3585960

> <chembl_pref_name>
None

> <i_lp_mmshare_version>
53161

> <i_f3d_flags>
0

> <r_lp_tautomer_probability>
1

> <s_lp_Force_Field>
OPLS_2005

> <r_lp_Energy>
19.266966

> <b_lp_Chiralities_Consistent>
1

> <s_lp_Variant>
CHEMBL3192_lig732-1

> <s_i_glide_gridfile>
glide-grid_3f07

> <i_i_glide_lignum>
783

> <i_i_glide_rotatable_bonds>
11

> <r_i_docking_score>
-7.16812390729301

> <r_i_glide_ligand_efficiency>
-0.311657561186652

> <r_i_glide_ligand_efficiency_sa>
-0.886312646353447

> <r_i_glide_ligand_efficiency_ln>
-1.73331735773749

> <r_i_glide_gscore>
-7.16812390729301

> <r_i_glide_lipo>
-1.10497049736099

> <r_i_glide_hbond>
-0.233504169808529

> <r_i_glide_metal>
-2.3

> <r_i_glide_rewards>
-1.29123975474115

> <r_i_glide_evdw>
-31.9253902435303

> <r_i_glide_ecoul>
-14.3820295333862

> <r_i_glide_erotb>
1.64646125433217

> <r_i_glide_esite>
-0.131296797530063

> <r_i_glide_emodel>
-68.4245793678249

> <r_i_glide_energy>
-46.3074197769165

> <r_i_glide_einternal>
6.79673194885254

> <i_i_glide_confnum>
84

> <i_i_glide_posenum>
372

> <r_i_glide_eff_state_penalty>
0

> <s_user_duplicate_titles>
CHEMBL3192_lig732

> <s_m_subgroup_title>
dock_pv

> <s_m_subgroupid>
dock_pv

> <b_m_subgroup_collapsed>
1

$$$$
CHEMBL3192_lig639
                    3D
 Schrodinger Suite 2021-1.
 49 51  0  0  1  0            999 V2000
  -30.2125   26.2544  -38.1315 C   0  0  0  0  0  0
  -29.2128   27.4205  -38.0504 C   0  0  0  0  0  0
  -28.8835   28.0551  -39.4243 C   0  0  0  0  0  0
  -28.1886   29.4237  -39.3846 C   0  0  0  0  0  0
  -26.8319   29.4178  -38.6467 C   0  0  0  0  0  0
  -30.8445   26.0690  -39.1810 O   0  0  0  0  0  0
  -30.3656   25.5133  -37.0237 N   0  0  0  0  0  0
  -31.3003   24.4686  -37.0541 O   0  0  0  0  0  0
  -24.9748   32.0325  -40.2503 N   0  0  0  0  0  0
  -26.1178   31.3789  -40.0015 N   0  0  0  0  0  0
  -25.8068   30.4221  -39.1480 C   0  0  0  0  0  0
  -24.4417   30.4691  -38.8334 C   0  0  0  0  0  0
  -23.9085   31.4977  -39.5810 C   0  0  0  0  0  0
  -24.9674   33.1327  -41.2017 C   0  0  0  0  0  0
  -25.1847   31.9475  -45.3655 C   0  0  0  0  0  0
  -24.0601   31.6348  -44.5883 C   0  0  0  0  0  0
  -23.9955   32.0006  -43.2461 C   0  0  0  0  0  0
  -25.0591   32.6862  -42.6573 C   0  0  0  0  0  0
  -26.1971   32.9769  -43.4097 C   0  0  0  0  0  0
  -26.2579   32.6082  -44.7510 C   0  0  0  0  0  0
  -25.2278   31.6156  -46.8233 C   0  0  0  0  0  0
  -24.0613   31.6690  -47.6013 C   0  0  0  0  0  0
  -24.0987   31.3934  -48.9657 C   0  0  0  0  0  0
  -25.3083   31.0624  -49.5687 C   0  0  0  0  0  0
  -26.4757   30.9939  -48.8148 C   0  0  0  0  0  0
  -26.4343   31.2690  -47.4502 C   0  0  0  0  0  0
  -29.6423   28.1732  -37.3874 H   0  0  0  0  0  0
  -28.2913   27.0811  -37.5812 H   0  0  0  0  0  0
  -28.2494   27.3630  -39.9810 H   0  0  0  0  0  0
  -29.7914   28.1904  -40.0118 H   0  0  0  0  0  0
  -28.0492   29.7249  -40.4242 H   0  0  0  0  0  0
  -28.8463   30.1741  -38.9435 H   0  0  0  0  0  0
  -27.0128   29.5534  -37.5810 H   0  0  0  0  0  0
  -26.3864   28.4302  -38.7429 H   0  0  0  0  0  0
  -29.8847   25.6006  -36.1377 H   0  0  0  0  0  0
  -30.7591   23.6799  -37.1810 H   0  0  0  0  0  0
  -23.9065   29.8097  -38.1657 H   0  0  0  0  0  0
  -22.9134   31.9091  -39.6714 H   0  0  0  0  0  0
  -25.7849   33.8080  -40.9431 H   0  0  0  0  0  0
  -24.0534   33.7097  -41.0522 H   0  0  0  0  0  0
  -23.2193   31.1147  -45.0233 H   0  0  0  0  0  0
  -23.1133   31.7645  -42.6685 H   0  0  0  0  0  0
  -27.0278   33.5043  -42.9647 H   0  0  0  0  0  0
  -27.1374   32.8721  -45.3195 H   0  0  0  0  0  0
  -23.1168   31.9473  -47.1567 H   0  0  0  0  0  0
  -23.1947   31.4515  -49.5544 H   0  0  0  0  0  0
  -25.3428   30.8690  -50.6305 H   0  0  0  0  0  0
  -27.4130   30.7381  -49.2868 H   0  0  0  0  0  0
  -27.3524   31.2090  -46.8838 H   0  0  0  0  0  0
  1  2  1  0  0  0
  1  6  2  0  0  0
  1  7  1  0  0  0
  2  3  1  0  0  0
  2 27  1  0  0  0
  2 28  1  0  0  0
  3  4  1  0  0  0
  3 29  1  0  0  0
  3 30  1  0  0  0
  4  5  1  0  0  0
  4 31  1  0  0  0
  4 32  1  0  0  0
  5 11  1  0  0  0
  5 33  1  0  0  0
  5 34  1  0  0  0
  7  8  1  0  0  0
  7 35  1  0  0  0
  8 36  1  0  0  0
  9 10  1  0  0  0
  9 13  1  0  0  0
  9 14  1  0  0  0
 10 11  2  0  0  0
 11 12  1  0  0  0
 12 13  2  0  0  0
 12 37  1  0  0  0
 13 38  1  0  0  0
 14 18  1  0  0  0
 14 39  1  0  0  0
 14 40  1  0  0  0
 15 16  1  0  0  0
 15 20  2  0  0  0
 15 21  1  0  0  0
 16 17  2  0  0  0
 16 41  1  0  0  0
 17 18  1  0  0  0
 17 42  1  0  0  0
 18 19  2  0  0  0
 19 20  1  0  0  0
 19 43  1  0  0  0
 20 44  1  0  0  0
 21 22  1  0  0  0
 21 26  2  0  0  0
 22 23  2  0  0  0
 22 45  1  0  0  0
 23 24  1  0  0  0
 23 46  1  0  0  0
 24 25  2  0  0  0
 24 47  1  0  0  0
 25 26  1  0  0  0
 25 48  1  0  0  0
 26 49  1  0  0  0
M  END
> <s_m_entry_id>
53092

> <s_m_entry_name>
dock_pv.311

> <s_m_Source_Path>
/home/csk/Desktop/cluster/DUD-E-result/hdac8

> <s_m_Source_File>
dock_pv.maegz

> <i_m_Source_File_Index>
311

> <chembl_id>
CHEMBL3335300

> <chembl_pref_name>
None

> <i_lp_mmshare_version>
53161

> <i_f3d_flags>
0

> <r_lp_tautomer_probability>
1

> <s_lp_Force_Field>
OPLS_2005

> <r_lp_Energy>
17.409611

> <b_lp_Chiralities_Consistent>
1

> <s_lp_Variant>
CHEMBL3192_lig639-1

> <s_i_glide_gridfile>
glide-grid_3f07

> <i_i_glide_lignum>
665

> <i_i_glide_rotatable_bonds>
10

> <r_i_docking_score>
-7.1679368444471

> <r_i_glide_ligand_efficiency>
-0.275689878632581

> <r_i_glide_ligand_efficiency_sa>
-0.816730180661731

> <r_i_glide_ligand_efficiency_ln>
-1.68336644799925

> <r_i_glide_gscore>
-7.1679368444471

> <r_i_glide_lipo>
-1.04919567965346

> <r_i_glide_hbond>
-0.243357382025729

> <r_i_glide_metal>
-2.3

> <r_i_glide_rewards>
-1.02663940819471

> <r_i_glide_evdw>
-34.0724563598633

> <r_i_glide_ecoul>
-13.9372406005859

> <r_i_glide_erotb>
1.40408919606343

> <r_i_glide_esite>
-0.158624662555584

> <r_i_glide_emodel>
-71.1775597841788

> <r_i_glide_energy>
-48.0096969604492

> <r_i_glide_einternal>
4.80940246582031

> <i_i_glide_confnum>
9

> <i_i_glide_posenum>
26

> <r_i_glide_eff_state_penalty>
0

> <s_user_duplicate_titles>
CHEMBL3192_lig639

> <s_m_subgroup_title>
dock_pv

> <s_m_subgroupid>
dock_pv

> <b_m_subgroup_collapsed>
1

$$$$
CHEMBL3192_lig449
                    3D
 Schrodinger Suite 2021-1.
 39 40  0  0  1  0            999 V2000
  -26.7128   33.6979  -40.8901 C   0  0  0  0  0  0
  -25.8332   32.5524  -40.6618 N   0  0  0  0  0  0
  -26.4642   31.3758  -40.2135 C   0  0  0  0  0  0
  -27.7097   30.9510  -40.6939 C   0  0  0  0  0  0
  -28.3142   29.8074  -40.1734 C   0  0  0  0  0  0
  -27.6770   29.0663  -39.1694 C   0  0  0  0  0  0
  -28.3063   27.9035  -38.5021 C   0  0  0  0  0  0
  -29.4130   27.2515  -38.9176 C   0  0  0  0  0  0
  -30.0733   26.1958  -38.1793 C   0  0  0  0  0  0
  -30.6130   25.2690  -38.7810 O   0  0  0  0  0  0
  -30.1433   26.3636  -36.8467 N   0  0  0  0  0  0
  -30.8169   25.3930  -36.0917 O   0  0  0  0  0  0
  -26.4134   29.4692  -38.7372 C   0  0  0  0  0  0
  -25.8127   30.6139  -39.2462 C   0  0  0  0  0  0
  -24.4750   32.4109  -41.8117 S   0  0  0  0  0  0
  -23.8988   33.7506  -41.9784 O   0  0  0  0  0  0
  -23.6544   31.2690  -41.3901 O   0  0  0  0  0  0
  -25.2538   31.9657  -43.3576 C   0  0  0  0  0  0
  -25.5588   30.6275  -43.6053 C   0  0  0  0  0  0
  -26.2130   30.2809  -44.7810 C   0  0  0  0  0  0
  -26.5722   31.2690  -45.6958 C   0  0  0  0  0  0
  -26.2815   32.6079  -45.4430 C   0  0  0  0  0  0
  -25.6233   32.9596  -44.2675 C   0  0  0  0  0  0
  -27.3811   33.8451  -40.0413 H   0  0  0  0  0  0
  -26.1235   34.6098  -40.9936 H   0  0  0  0  0  0
  -27.3075   33.5750  -41.7953 H   0  0  0  0  0  0
  -28.2130   31.5069  -41.4682 H   0  0  0  0  0  0
  -29.2894   29.5281  -40.5418 H   0  0  0  0  0  0
  -27.8346   27.5909  -37.5810 H   0  0  0  0  0  0
  -29.8680   27.5067  -39.8604 H   0  0  0  0  0  0
  -29.6879   27.0730  -36.2821 H   0  0  0  0  0  0
  -30.1106   24.9166  -35.6449 H   0  0  0  0  0  0
  -25.8896   28.9051  -37.9810 H   0  0  0  0  0  0
  -24.8445   30.9215  -38.8742 H   0  0  0  0  0  0
  -25.2991   29.8635  -42.8867 H   0  0  0  0  0  0
  -26.4538   29.2494  -44.9765 H   0  0  0  0  0  0
  -27.0885   30.9959  -46.6049 H   0  0  0  0  0  0
  -26.5681   33.3697  -46.1535 H   0  0  0  0  0  0
  -25.4038   33.9987  -44.0660 H   0  0  0  0  0  0
  1  2  1  0  0  0
  1 24  1  0  0  0
  1 25  1  0  0  0
  1 26  1  0  0  0
  2  3  1  0  0  0
  2 15  1  0  0  0
  3  4  2  0  0  0
  3 14  1  0  0  0
  4  5  1  0  0  0
  4 27  1  0  0  0
  5  6  2  0  0  0
  5 28  1  0  0  0
  6  7  1  0  0  0
  6 13  1  0  0  0
  7  8  2  0  0  0
  7 29  1  0  0  0
  8  9  1  0  0  0
  8 30  1  0  0  0
  9 10  2  0  0  0
  9 11  1  0  0  0
 11 12  1  0  0  0
 11 31  1  0  0  0
 12 32  1  0  0  0
 13 14  2  0  0  0
 13 33  1  0  0  0
 14 34  1  0  0  0
 15 16  2  0  0  0
 15 17  2  0  0  0
 15 18  1  0  0  0
 18 19  2  0  0  0
 18 23  1  0  0  0
 19 20  1  0  0  0
 19 35  1  0  0  0
 20 21  2  0  0  0
 20 36  1  0  0  0
 21 22  1  0  0  0
 21 37  1  0  0  0
 22 23  2  0  0  0
 22 38  1  0  0  0
 23 39  1  0  0  0
M  END
> <s_m_entry_id>
53093

> <s_m_entry_name>
dock_pv.312

> <s_m_Source_Path>
/home/csk/Desktop/cluster/DUD-E-result/hdac8

> <s_m_Source_File>
dock_pv.maegz

> <i_m_Source_File_Index>
312

> <chembl_id>
CHEMBL97387

> <chembl_pref_name>
None

> <i_lp_mmshare_version>
53161

> <i_f3d_flags>
0

> <r_lp_tautomer_probability>
1

> <s_lp_Force_Field>
OPLS_2005

> <r_lp_Energy>
17.82647

> <b_lp_Chiralities_Consistent>
1

> <s_lp_Variant>
CHEMBL3192_lig449-1

> <s_i_glide_gridfile>
glide-grid_3f07

> <i_i_glide_lignum>
468

> <i_i_glide_rotatable_bonds>
7

> <r_i_docking_score>
-7.15992912909319

> <r_i_glide_ligand_efficiency>
-0.311301266482313

> <r_i_glide_ligand_efficiency_sa>
-0.885299391609739

> <r_i_glide_ligand_efficiency_ln>
-1.73133578606264

> <r_i_glide_gscore>
-7.15992912909319

> <r_i_glide_lipo>
-1.49451824752237

> <r_i_glide_hbond>
-0.32

> <r_i_glide_metal>
-2.3

> <r_i_glide_rewards>
-1.21051929901729

> <r_i_glide_evdw>
-34.2010536193848

> <r_i_glide_ecoul>
-6.37843704223633

> <r_i_glide_erotb>
1.02288746066312

> <r_i_glide_esite>
-0.19096080591197

> <r_i_glide_emodel>
-60.3439915985779

> <r_i_glide_energy>
-40.5794906616211

> <r_i_glide_einternal>
3.78030157089233

> <i_i_glide_confnum>
33

> <i_i_glide_posenum>
157

> <r_i_glide_eff_state_penalty>
0

> <s_user_duplicate_titles>
CHEMBL3192_lig449

> <s_m_subgroup_title>
dock_pv

> <s_m_subgroupid>
dock_pv

> <b_m_subgroup_collapsed>
1

$$$$
CHEMBL3192_lig393
                    3D
 Schrodinger Suite 2021-1.
 65 66  0  0  1  0            999 V2000
  -24.6811   32.0771  -46.5790 C   0  0  0  0  0  0
  -25.9743   32.4973  -45.3748 S   0  0  0  0  0  0
  -25.3533   31.5035  -43.9777 C   0  0  0  0  0  0
  -24.6129   30.0690  -44.7813 S   0  0  0  0  0  0
  -23.6906   31.0849  -45.9639 C   0  0  0  0  0  0
  -26.5425   32.4474  -42.0895 C   0  0  2  0  0  0
  -26.4588   31.1986  -42.9897 C   0  0  0  0  0  0
  -24.3520   32.2558  -43.0996 C   0  0  0  0  0  0
  -25.1691   32.9993  -42.1389 N   0  0  0  0  0  0
  -27.0551   32.0059  -40.6996 C   0  0  0  0  0  0
  -26.2158   31.3118  -39.9124 N   0  0  0  0  0  0
  -28.2130   32.2630  -40.3810 O   0  0  0  0  0  0
  -26.5683   30.6657  -38.6497 C   0  0  0  0  0  0
  -26.4453   29.1398  -38.7262 C   0  0  0  0  0  0
  -27.4039   28.4286  -39.7108 C   0  0  0  0  0  0
  -28.8780   28.3996  -39.2539 C   0  0  0  0  0  0
  -29.1243   27.5402  -37.9810 C   0  0  0  0  0  0
  -30.0495   26.3197  -38.1105 C   0  0  0  0  0  0
  -30.2130   25.5848  -36.9998 N   0  0  0  0  0  0
  -30.6130   26.0690  -39.1810 O   0  0  0  0  0  0
  -31.0587   24.4690  -37.0648 O   0  0  0  0  0  0
  -24.7425   34.0850  -41.4315 C   0  0  0  0  0  0
  -23.2194   34.3966  -41.2605 C   0  0  1  0  0  0
  -25.5339   34.8023  -40.8150 O   0  0  0  0  0  0
  -22.6537   33.3583  -40.3810 N   0  0  0  0  0  0
  -22.3843   34.5550  -42.5551 C   0  0  0  0  0  0
  -21.0222   35.2493  -42.3830 C   0  0  0  0  0  0
  -20.1531   35.2246  -43.6607 C   0  0  0  0  0  0
  -19.4048   33.9021  -43.9429 C   0  0  0  0  0  0
  -20.2746   32.8720  -44.4860 N   0  0  0  0  0  0
  -25.1846   31.6304  -47.4370 H   0  0  0  0  0  0
  -24.1828   32.9852  -46.9196 H   0  0  0  0  0  0
  -23.2307   30.4690  -46.7340 H   0  0  0  0  0  0
  -22.8869   31.5954  -45.4324 H   0  0  0  0  0  0
  -27.2774   33.1577  -42.4706 H   0  0  0  0  0  0
  -26.1740   30.3055  -42.4271 H   0  0  0  0  0  0
  -27.4130   30.9584  -43.4556 H   0  0  0  0  0  0
  -23.6958   31.5574  -42.5776 H   0  0  0  0  0  0
  -23.8028   32.9008  -43.7780 H   0  0  0  0  0  0
  -25.2392   31.2933  -40.1696 H   0  0  0  0  0  0
  -27.6014   30.8690  -38.3811 H   0  0  0  0  0  0
  -25.9510   31.0743  -37.8477 H   0  0  0  0  0  0
  -26.6130   28.7391  -37.7309 H   0  0  0  0  0  0
  -25.4134   28.9017  -38.9704 H   0  0  0  0  0  0
  -27.0637   27.4020  -39.8585 H   0  0  0  0  0  0
  -27.3352   28.8962  -40.6935 H   0  0  0  0  0  0
  -29.4881   28.0690  -40.0902 H   0  0  0  0  0  0
  -29.2205   29.4192  -39.0718 H   0  0  0  0  0  0
  -29.5299   28.1818  -37.1960 H   0  0  0  0  0  0
  -28.1771   27.1744  -37.5910 H   0  0  0  0  0  0
  -29.7919   25.7214  -36.0899 H   0  0  0  0  0  0
  -30.4519   23.7263  -37.1810 H   0  0  0  0  0  0
  -23.1616   35.3563  -40.7419 H   0  0  0  0  0  0
  -21.6606   33.5023  -40.2705 H   0  0  0  0  0  0
  -23.0130   33.4929  -39.4333 H   0  0  0  0  0  0
  -22.1490   33.5665  -42.9273 H   0  0  0  0  0  0
  -22.9586   35.0696  -43.3272 H   0  0  0  0  0  0
  -21.1987   36.2859  -42.0936 H   0  0  0  0  0  0
  -20.4673   34.7989  -41.5596 H   0  0  0  0  0  0
  -20.7414   35.5226  -44.5297 H   0  0  0  0  0  0
  -19.3951   36.0005  -43.5474 H   0  0  0  0  0  0
  -18.6219   34.0873  -44.6791 H   0  0  0  0  0  0
  -18.9096   33.5348  -43.0432 H   0  0  0  0  0  0
  -19.7362   32.0653  -44.7801 H   0  0  0  0  0  0
  -20.8825   32.5373  -43.7533 H   0  0  0  0  0  0
  1  5  1  0  0  0
  1  2  1  0  0  0
  1 31  1  0  0  0
  1 32  1  0  0  0
  2  3  1  0  0  0
  3  7  1  0  0  0
  3  8  1  0  0  0
  3  4  1  0  0  0
  4  5  1  0  0  0
  5 33  1  0  0  0
  5 34  1  0  0  0
  6  9  1  0  0  0
  6 10  1  0  0  0
  6  7  1  0  0  0
  6 35  1  0  0  0
  7 36  1  0  0  0
  7 37  1  0  0  0
  8  9  1  0  0  0
  8 38  1  0  0  0
  8 39  1  0  0  0
  9 22  1  0  0  0
 10 11  1  0  0  0
 10 12  2  0  0  0
 11 13  1  0  0  0
 11 40  1  0  0  0
 13 14  1  0  0  0
 13 41  1  0  0  0
 13 42  1  0  0  0
 14 15  1  0  0  0
 14 43  1  0  0  0
 14 44  1  0  0  0
 15 16  1  0  0  0
 15 45  1  0  0  0
 15 46  1  0  0  0
 16 17  1  0  0  0
 16 47  1  0  0  0
 16 48  1  0  0  0
 17 18  1  0  0  0
 17 49  1  0  0  0
 17 50  1  0  0  0
 18 19  1  0  0  0
 18 20  2  0  0  0
 19 21  1  0  0  0
 19 51  1  0  0  0
 21 52  1  0  0  0
 22 23  1  0  0  0
 22 24  2  0  0  0
 23 25  1  0  0  0
 23 26  1  0  0  0
 23 53  1  0  0  0
 25 54  1  0  0  0
 25 55  1  0  0  0
 26 27  1  0  0  0
 26 56  1  0  0  0
 26 57  1  0  0  0
 27 28  1  0  0  0
 27 58  1  0  0  0
 27 59  1  0  0  0
 28 29  1  0  0  0
 28 60  1  0  0  0
 28 61  1  0  0  0
 29 30  1  0  0  0
 29 62  1  0  0  0
 29 63  1  0  0  0
 30 64  1  0  0  0
 30 65  1  0  0  0
M  END
> <s_m_entry_id>
53094

> <s_m_entry_name>
dock_pv.313

> <s_m_Source_Path>
/home/csk/Desktop/cluster/DUD-E-result/hdac8

> <s_m_Source_File>
dock_pv.maegz

> <i_m_Source_File_Index>
313

> <chembl_id>
CHEMBL3217203

> <chembl_pref_name>
None

> <i_lp_mmshare_version>
53161

> <i_f3d_flags>
0

> <r_lp_tautomer_probability>
1

> <s_lp_Force_Field>
OPLS_2005

> <r_lp_Energy>
29.865406

> <b_lp_Chiralities_Consistent>
1

> <s_lp_Variant>
CHEMBL3192_lig393-1

> <s_i_glide_gridfile>
glide-grid_3f07

> <i_i_glide_lignum>
412

> <i_i_glide_rotatable_bonds>
16

> <r_i_docking_score>
-7.15807957128243

> <r_i_glide_ligand_efficiency>
-0.238602652376081

> <r_i_glide_ligand_efficiency_sa>
-0.741393916629225

> <r_i_glide_ligand_efficiency_ln>
-1.62639367211909

> <r_i_glide_gscore>
-7.15807957128243

> <r_i_glide_lipo>
-1.01736100201729

> <r_i_glide_hbond>
-0.353327365082555

> <r_i_glide_metal>
-2.3

> <r_i_glide_rewards>
-0.299399989110683

> <r_i_glide_evdw>
-31.0249786376953

> <r_i_glide_ecoul>
-18.4463291168213

> <r_i_glide_erotb>
1.32289473112287

> <r_i_glide_esite>
-0.192687646786811

> <r_i_glide_emodel>
-70.870145745014

> <r_i_glide_energy>
-49.4713077545166

> <r_i_glide_einternal>
12.5482769012451

> <i_i_glide_confnum>
200

> <i_i_glide_posenum>
47

> <r_i_glide_eff_state_penalty>
0

> <s_user_duplicate_titles>
CHEMBL3192_lig393

> <s_m_subgroup_title>
dock_pv

> <s_m_subgroupid>
dock_pv

> <b_m_subgroup_collapsed>
1

$$$$
CHEMBL3192_lig194
                    3D
 Schrodinger Suite 2021-1.
 47 49  0  0  1  0            999 V2000
  -27.1859   28.5234  -38.6088 C   0  0  0  0  0  0
  -28.4317   28.6366  -39.2271 C   0  0  0  0  0  0
  -28.6808   29.7722  -39.9989 C   0  0  0  0  0  0
  -26.2132   29.5010  -38.7821 C   0  0  0  0  0  0
  -26.4479   30.6257  -39.5663 C   0  0  0  0  0  0
  -27.7175   30.7814  -40.1479 C   0  0  0  0  0  0
  -25.7824   32.9189  -40.6312 C   0  0  2  0  0  0
  -25.3564   31.6871  -39.7634 C   0  0  0  0  0  0
  -27.2219   33.1889  -40.4916 N   0  0  2  0  0  0
  -27.9963   32.0363  -40.9514 C   0  0  0  0  0  0
  -25.4109   32.8736  -42.1477 C   0  0  0  0  0  0
  -25.9694   33.6667  -42.9146 O   0  0  0  0  0  0
  -24.4980   31.9784  -42.5806 N   0  0  0  0  0  0
  -24.2135   31.7413  -43.9324 C   0  0  0  0  0  0
  -25.2352   31.4553  -44.8483 C   0  0  0  0  0  0
  -24.9268   31.2438  -46.1890 C   0  0  0  0  0  0
  -23.5994   31.3139  -46.6138 C   0  0  0  0  0  0
  -22.5870   31.5998  -45.6981 C   0  0  0  0  0  0
  -22.8860   31.7909  -44.3522 C   0  0  0  0  0  0
  -25.2331   33.7972  -40.2889 H   0  0  0  0  0  0
  -29.4127   27.6659  -39.1280 O   0  0  0  0  0  0
  -29.5387   27.0062  -37.8578 C   0  0  0  0  0  0
  -30.5841   25.8868  -37.8978 C   0  0  0  0  0  0
  -31.2480   25.6928  -38.9183 O   0  0  0  0  0  0
  -30.6932   25.1433  -36.7832 N   0  0  0  0  0  0
  -31.5962   24.0695  -36.7884 O   0  0  0  0  0  0
  -23.2460   31.0956  -48.0739 C   0  0  0  0  0  0
  -26.9416   27.6752  -37.9957 H   0  0  0  0  0  0
  -29.6436   29.8771  -40.4764 H   0  0  0  0  0  0
  -25.2468   29.3712  -38.3171 H   0  0  0  0  0  0
  -25.1097   32.0684  -38.7757 H   0  0  0  0  0  0
  -24.4365   31.2190  -40.1118 H   0  0  0  0  0  0
  -27.4130   34.0021  -41.0632 H   0  0  0  0  0  0
  -27.8130   31.8205  -42.0002 H   0  0  0  0  0  0
  -29.0303   32.3221  -40.8465 H   0  0  0  0  0  0
  -23.9113   31.5229  -41.8996 H   0  0  0  0  0  0
  -26.2657   31.4094  -44.5257 H   0  0  0  0  0  0
  -25.7203   31.0294  -46.8902 H   0  0  0  0  0  0
  -21.5588   31.6658  -46.0251 H   0  0  0  0  0  0
  -22.0901   32.0083  -43.6542 H   0  0  0  0  0  0
  -29.8125   27.7277  -37.0862 H   0  0  0  0  0  0
  -28.6135   26.5228  -37.5978 H   0  0  0  0  0  0
  -30.1645   25.2193  -35.9236 H   0  0  0  0  0  0
  -31.0373   23.2992  -36.9455 H   0  0  0  0  0  0
  -24.1316   31.0469  -48.7069 H   0  0  0  0  0  0
  -22.6308   31.9191  -48.4362 H   0  0  0  0  0  0
  -22.6689   30.1783  -48.1947 H   0  0  0  0  0  0
  1  4  1  0  0  0
  1  2  2  0  0  0
  1 28  1  0  0  0
  2  3  1  0  0  0
  2 21  1  0  0  0
  3  6  2  0  0  0
  3 29  1  0  0  0
  4  5  2  0  0  0
  4 30  1  0  0  0
  5  8  1  0  0  0
  5  6  1  0  0  0
  6 10  1  0  0  0
  7  8  1  0  0  0
  7 20  1  0  0  0
  7  9  1  0  0  0
  7 11  1  0  0  0
  8 31  1  0  0  0
  8 32  1  0  0  0
  9 10  1  0  0  0
  9 33  1  0  0  0
 10 34  1  0  0  0
 10 35  1  0  0  0
 11 12  2  0  0  0
 11 13  1  0  0  0
 13 14  1  0  0  0
 13 36  1  0  0  0
 14 15  2  0  0  0
 14 19  1  0  0  0
 15 16  1  0  0  0
 15 37  1  0  0  0
 16 17  2  0  0  0
 16 38  1  0  0  0
 17 18  1  0  0  0
 17 27  1  0  0  0
 18 19  2  0  0  0
 18 39  1  0  0  0
 19 40  1  0  0  0
 21 22  1  0  0  0
 22 23  1  0  0  0
 22 41  1  0  0  0
 22 42  1  0  0  0
 23 24  2  0  0  0
 23 25  1  0  0  0
 25 26  1  0  0  0
 25 43  1  0  0  0
 26 44  1  0  0  0
 27 45  1  0  0  0
 27 46  1  0  0  0
 27 47  1  0  0  0
M  END
> <s_m_entry_id>
53096

> <s_m_entry_name>
dock_pv.315

> <s_m_Source_Path>
/home/csk/Desktop/cluster/DUD-E-result/hdac8

> <s_m_Source_File>
dock_pv.maegz

> <i_m_Source_File_Index>
315

> <chembl_id>
CHEMBL599460

> <chembl_pref_name>
None

> <i_lp_mmshare_version>
53161

> <i_f3d_flags>
0

> <r_lp_tautomer_probability>
1

> <s_lp_Force_Field>
OPLS_2005

> <r_lp_Energy>
36.63531

> <b_lp_Chiralities_Consistent>
1

> <s_lp_Variant>
CHEMBL3192_lig194-1

> <s_i_glide_gridfile>
glide-grid_3f07

> <i_i_glide_lignum>
204

> <i_i_glide_rotatable_bonds>
8

> <r_i_docking_score>
-7.15323132239808

> <r_i_glide_ligand_efficiency>
-0.275124281630695

> <r_i_glide_ligand_efficiency_sa>
-0.815054601769161

> <r_i_glide_ligand_efficiency_ln>
-1.67991290439878

> <r_i_glide_gscore>
-7.15323132239808

> <r_i_glide_lipo>
-1.31010516308732

> <r_i_glide_hbond>
-0.25516633214074

> <r_i_glide_metal>
-2.3

> <r_i_glide_rewards>
-0.376026814770588

> <r_i_glide_evdw>
-33.5149955749512

> <r_i_glide_ecoul>
-14.5802335739136

> <r_i_glide_erotb>
1.05969369027529

> <r_i_glide_esite>
-0.108841887840129

> <r_i_glide_emodel>
-61.2332401775499

> <r_i_glide_energy>
-48.0952291488647

> <r_i_glide_einternal>
12.7692279815674

> <i_i_glide_confnum>
13

> <i_i_glide_posenum>
340

> <r_i_glide_eff_state_penalty>
0

> <s_user_duplicate_titles>
CHEMBL3192_lig194

> <s_m_subgroup_title>
dock_pv

> <s_m_subgroupid>
dock_pv

> <b_m_subgroup_collapsed>
1

$$$$
CHEMBL3192_lig1089
                    3D
 Schrodinger Suite 2021-1.
 44 47  0  0  1  0            999 V2000
  -30.4021   25.7191  -37.2293 O   0  0  0  0  0  0
  -29.4132   26.6624  -37.5658 N   0  0  0  0  0  0
  -29.4130   27.1894  -38.7915 C   0  0  0  0  0  0
  -30.2628   26.8690  -39.6159 O   0  0  0  0  0  0
  -28.3885   28.2612  -39.0865 C   0  0  0  0  0  0
  -27.1930   28.2803  -38.3808 C   0  0  0  0  0  0
  -26.2402   29.2701  -38.5712 C   0  0  0  0  0  0
  -26.4581   30.2572  -39.5105 C   0  0  0  0  0  0
  -25.4228   31.1562  -39.6662 O   0  0  0  0  0  0
  -25.7634   32.3843  -40.3137 C   0  0  0  0  0  0
  -26.5157   32.1157  -41.6294 C   0  0  2  0  0  0
  -27.8128   31.3259  -41.3382 C   0  0  0  0  0  0
  -27.6269   30.2513  -40.2880 C   0  0  0  0  0  0
  -28.5929   29.2590  -40.0528 C   0  0  0  0  0  0
  -25.6252   31.3558  -42.5085 N   0  0  0  0  0  0
  -25.6420   31.4453  -43.9049 C   0  0  0  0  0  0
  -24.6775   30.7298  -44.5351 N   0  0  0  0  0  0
  -24.6035   30.8689  -45.8816 C   0  0  0  0  0  0
  -25.4868   31.6689  -46.6036 C   0  0  0  0  0  0
  -26.4698   32.3605  -45.8820 C   0  0  0  0  0  0
  -26.5450   32.2550  -44.5237 N   0  0  0  0  0  0
  -27.4285   33.2932  -46.5462 C   0  0  0  0  0  0
  -27.9828   34.3935  -45.8706 C   0  0  0  0  0  0
  -28.8290   35.2804  -46.5379 C   0  0  0  0  0  0
  -29.1071   35.0447  -47.8827 C   0  0  0  0  0  0
  -28.6124   33.9808  -48.5610 N   0  0  0  0  0  0
  -27.7956   33.1296  -47.8917 C   0  0  0  0  0  0
  -30.9625   26.1873  -36.6026 H   0  0  0  0  0  0
  -28.8212   26.9273  -36.7829 H   0  0  0  0  0  0
  -27.0110   27.5241  -37.6322 H   0  0  0  0  0  0
  -25.3232   29.2677  -37.9989 H   0  0  0  0  0  0
  -26.3913   32.9768  -39.6457 H   0  0  0  0  0  0
  -24.8533   32.9608  -40.4872 H   0  0  0  0  0  0
  -26.7533   33.0689  -42.1047 H   0  0  0  0  0  0
  -28.1978   30.8690  -42.2473 H   0  0  0  0  0  0
  -28.5745   32.0165  -40.9784 H   0  0  0  0  0  0
  -29.5046   29.2696  -40.6344 H   0  0  0  0  0  0
  -24.9975   30.6948  -42.0744 H   0  0  0  0  0  0
  -23.8143   30.3273  -46.3807 H   0  0  0  0  0  0
  -25.3853   31.7666  -47.6737 H   0  0  0  0  0  0
  -27.7424   34.5795  -44.8338 H   0  0  0  0  0  0
  -29.2516   36.1330  -46.0270 H   0  0  0  0  0  0
  -29.7616   35.7028  -48.4349 H   0  0  0  0  0  0
  -27.4369   32.2945  -48.4741 H   0  0  0  0  0  0
  1  2  1  0  0  0
  1 28  1  0  0  0
  2  3  1  0  0  0
  2 29  1  0  0  0
  3  4  2  0  0  0
  3  5  1  0  0  0
  5  6  2  0  0  0
  5 14  1  0  0  0
  6  7  1  0  0  0
  6 30  1  0  0  0
  7  8  2  0  0  0
  7 31  1  0  0  0
  8  9  1  0  0  0
  8 13  1  0  0  0
  9 10  1  0  0  0
 10 11  1  0  0  0
 10 32  1  0  0  0
 10 33  1  0  0  0
 11 12  1  0  0  0
 11 15  1  0  0  0
 11 34  1  0  0  0
 12 13  1  0  0  0
 12 35  1  0  0  0
 12 36  1  0  0  0
 13 14  2  0  0  0
 14 37  1  0  0  0
 15 16  1  0  0  0
 15 38  1  0  0  0
 16 17  2  0  0  0
 16 21  1  0  0  0
 17 18  1  0  0  0
 18 19  2  0  0  0
 18 39  1  0  0  0
 19 20  1  0  0  0
 19 40  1  0  0  0
 20 21  2  0  0  0
 20 22  1  0  0  0
 22 23  2  0  0  0
 22 27  1  0  0  0
 23 24  1  0  0  0
 23 41  1  0  0  0
 24 25  2  0  0  0
 24 42  1  0  0  0
 25 26  1  0  0  0
 25 43  1  0  0  0
 26 27  2  0  0  0
 27 44  1  0  0  0
M  END
> <s_m_entry_id>
53097

> <s_m_entry_name>
dock_pv.316

> <s_m_Source_Path>
/home/csk/Desktop/cluster/DUD-E-result/hdac8

> <s_m_Source_File>
dock_pv.maegz

> <i_m_Source_File_Index>
316

> <chembl_id>
CHEMBL3694334

> <chembl_pref_name>
None

> <i_lp_mmshare_version>
53161

> <i_f3d_flags>
0

> <r_lp_tautomer_probability>
0.999999987636

> <s_lp_Force_Field>
OPLS_2005

> <r_lp_Energy>
27.533965

> <b_lp_Chiralities_Consistent>
1

> <s_lp_Variant>
CHEMBL3192_lig1089-1

> <s_i_glide_gridfile>
glide-grid_3f07

> <i_i_glide_lignum>
1217

> <i_i_glide_rotatable_bonds>
6

> <r_i_docking_score>
-7.15264341006624

> <r_i_glide_ligand_efficiency>
-0.264912718891342

> <r_i_glide_ligand_efficiency_sa>
-0.794738155800917

> <r_i_glide_ligand_efficiency_ln>
-1.66501746532081

> <r_i_glide_gscore>
-7.15264341006624

> <r_i_glide_lipo>
-1.26738423467842

> <r_i_glide_hbond>
-0.608

> <r_i_glide_metal>
-1.79930612084369

> <r_i_glide_rewards>
-1.18016417458737

> <r_i_glide_evdw>
-23.1851177215576

> <r_i_glide_ecoul>
-11.1071786880493

> <r_i_glide_erotb>
0.727543809328529

> <r_i_glide_esite>
-0.2

> <r_i_glide_emodel>
-49.8063602597947

> <r_i_glide_energy>
-34.2922964096069

> <r_i_glide_einternal>
2.43158030509949

> <i_i_glide_confnum>
22

> <i_i_glide_posenum>
326

> <r_i_glide_eff_state_penalty>
0

> <s_user_duplicate_titles>
CHEMBL3192_lig1089

> <s_m_subgroup_title>
dock_pv

> <s_m_subgroupid>
dock_pv

> <b_m_subgroup_collapsed>
1

$$$$
CHEMBL3192_lig374
                    3D
 Schrodinger Suite 2021-1.
 54 55  0  0  1  0            999 V2000
  -22.9330   31.6168  -45.9290 C   0  0  0  0  0  0
  -24.3407   30.7834  -45.1464 S   0  0  0  0  0  0
  -24.5550   31.8727  -43.6992 C   0  0  0  0  0  0
  -23.7157   33.4232  -44.1491 S   0  0  0  0  0  0
  -22.3165   32.5954  -44.9330 C   0  0  0  0  0  0
  -26.0107   32.5350  -41.8635 C   0  0  2  0  0  0
  -26.0180   32.0997  -43.3397 C   0  0  0  0  0  0
  -23.9961   31.2722  -42.3999 C   0  0  0  0  0  0
  -24.8599   31.7715  -41.3194 N   0  0  0  0  0  0
  -27.4129   32.2919  -41.2584 C   0  0  0  0  0  0
  -27.8130   31.0197  -41.0811 N   0  0  0  0  0  0
  -28.1031   33.2614  -40.9412 O   0  0  0  0  0  0
  -29.0704   30.6183  -40.4588 C   0  0  0  0  0  0
  -28.8379   29.8020  -39.1810 C   0  0  0  0  0  0
  -28.5637   28.3190  -39.4766 C   0  0  0  0  0  0
  -28.3773   27.4368  -38.2328 C   0  0  0  0  0  0
  -29.6654   27.1680  -37.4087 C   0  0  0  0  0  0
  -30.5267   26.0448  -37.9813 C   0  0  0  0  0  0
  -30.7864   25.0569  -37.1127 N   0  0  0  0  0  0
  -30.8891   26.0690  -39.1698 O   0  0  0  0  0  0
  -31.4131   23.9164  -37.5788 O   0  0  0  0  0  0
  -24.6565   31.4266  -40.0148 C   0  0  0  0  0  0
  -23.2422   30.9566  -39.5613 C   0  0  1  0  0  0
  -25.5254   31.5475  -39.1499 O   0  0  0  0  0  0
  -22.2965   32.0689  -39.7720 N   0  0  0  0  0  0
  -23.1899   30.4647  -38.1032 C   0  0  0  0  0  0
  -22.2130   30.8695  -46.2588 H   0  0  0  0  0  0
  -23.3044   32.1374  -46.8126 H   0  0  0  0  0  0
  -21.7262   32.0844  -44.1716 H   0  0  0  0  0  0
  -21.6784   33.3285  -45.4266 H   0  0  0  0  0  0
  -25.8342   33.6110  -41.8169 H   0  0  0  0  0  0
  -26.5750   31.1695  -43.4792 H   0  0  0  0  0  0
  -26.5166   32.8265  -43.9835 H   0  0  0  0  0  0
  -22.9454   31.5278  -42.2593 H   0  0  0  0  0  0
  -24.1092   30.1915  -42.4523 H   0  0  0  0  0  0
  -27.1787   30.2823  -41.3473 H   0  0  0  0  0  0
  -29.6466   30.0387  -41.1809 H   0  0  0  0  0  0
  -29.7120   31.4661  -40.2263 H   0  0  0  0  0  0
  -29.7102   29.9059  -38.5377 H   0  0  0  0  0  0
  -28.0051   30.2273  -38.6177 H   0  0  0  0  0  0
  -27.6731   28.2376  -40.1022 H   0  0  0  0  0  0
  -29.3877   27.9261  -40.0630 H   0  0  0  0  0  0
  -27.6139   27.8891  -37.5992 H   0  0  0  0  0  0
  -27.9482   26.4869  -38.5542 H   0  0  0  0  0  0
  -30.2130   28.0772  -37.1810 H   0  0  0  0  0  0
  -29.4130   26.8264  -36.4102 H   0  0  0  0  0  0
  -30.4645   24.9747  -36.1574 H   0  0  0  0  0  0
  -30.6981   23.2688  -37.6581 H   0  0  0  0  0  0
  -22.9781   30.1065  -40.1868 H   0  0  0  0  0  0
  -22.4863   32.7890  -39.0714 H   0  0  0  0  0  0
  -21.3536   31.7734  -39.5663 H   0  0  0  0  0  0
  -23.9136   29.6690  -37.9267 H   0  0  0  0  0  0
  -22.2050   30.0702  -37.8531 H   0  0  0  0  0  0
  -23.4096   31.2689  -37.4030 H   0  0  0  0  0  0
  1  2  1  0  0  0
  1  5  1  0  0  0
  1 27  1  0  0  0
  1 28  1  0  0  0
  2  3  1  0  0  0
  3  4  1  0  0  0
  3  7  1  0  0  0
  3  8  1  0  0  0
  4  5  1  0  0  0
  5 29  1  0  0  0
  5 30  1  0  0  0
  6  9  1  0  0  0
  6 10  1  0  0  0
  6  7  1  0  0  0
  6 31  1  0  0  0
  7 32  1  0  0  0
  7 33  1  0  0  0
  8  9  1  0  0  0
  8 34  1  0  0  0
  8 35  1  0  0  0
  9 22  1  0  0  0
 10 11  1  0  0  0
 10 12  2  0  0  0
 11 13  1  0  0  0
 11 36  1  0  0  0
 13 14  1  0  0  0
 13 37  1  0  0  0
 13 38  1  0  0  0
 14 15  1  0  0  0
 14 39  1  0  0  0
 14 40  1  0  0  0
 15 16  1  0  0  0
 15 41  1  0  0  0
 15 42  1  0  0  0
 16 17  1  0  0  0
 16 43  1  0  0  0
 16 44  1  0  0  0
 17 18  1  0  0  0
 17 45  1  0  0  0
 17 46  1  0  0  0
 18 19  1  0  0  0
 18 20  2  0  0  0
 19 21  1  0  0  0
 19 47  1  0  0  0
 21 48  1  0  0  0
 22 23  1  0  0  0
 22 24  2  0  0  0
 23 25  1  0  0  0
 23 26  1  0  0  0
 23 49  1  0  0  0
 25 50  1  0  0  0
 25 51  1  0  0  0
 26 52  1  0  0  0
 26 53  1  0  0  0
 26 54  1  0  0  0
M  END
> <s_m_entry_id>
53098

> <s_m_entry_name>
dock_pv.317

> <s_m_Source_Path>
/home/csk/Desktop/cluster/DUD-E-result/hdac8

> <s_m_Source_File>
dock_pv.maegz

> <i_m_Source_File_Index>
317

> <chembl_id>
CHEMBL1835349

> <chembl_pref_name>
None

> <i_lp_mmshare_version>
53161

> <i_f3d_flags>
0

> <r_lp_tautomer_probability>
1

> <s_lp_Force_Field>
OPLS_2005

> <r_lp_Energy>
26.581778

> <b_lp_Chiralities_Consistent>
1

> <s_lp_Variant>
CHEMBL3192_lig374-1

> <s_i_glide_gridfile>
glide-grid_3f07

> <i_i_glide_lignum>
393

> <i_i_glide_rotatable_bonds>
12

> <r_i_docking_score>
-7.15185355407064

> <r_i_glide_ligand_efficiency>
-0.275071290541179

> <r_i_glide_ligand_efficiency_sa>
-0.814897615874978

> <r_i_glide_ligand_efficiency_ln>
-1.67958934002791

> <r_i_glide_gscore>
-7.15185355407064

> <r_i_glide_lipo>
-0.634594881066513

> <r_i_glide_hbond>
-0.367301225188852

> <r_i_glide_metal>
-2.3

> <r_i_glide_rewards>
-0.715337338792404

> <r_i_glide_evdw>
-25.9212017059326

> <r_i_glide_ecoul>
-19.0645771026611

> <r_i_glide_erotb>
1.20030004695701

> <r_i_glide_esite>
-0.179173505284088

> <r_i_glide_emodel>
-62.4159961928336

> <r_i_glide_energy>
-44.9857788085938

> <r_i_glide_einternal>
13.5878877639771

> <i_i_glide_confnum>
390

> <i_i_glide_posenum>
108

> <r_i_glide_eff_state_penalty>
0

> <s_user_duplicate_titles>
CHEMBL3192_lig374

> <s_m_subgroup_title>
dock_pv

> <s_m_subgroupid>
dock_pv

> <b_m_subgroup_collapsed>
1

$$$$
CHEMBL3192_lig920
                    3D
 Schrodinger Suite 2021-1.
 49 50  0  0  1  0            999 V2000
  -29.0524   26.9611  -38.9142 C   0  0  0  0  0  0
  -27.6175   27.4469  -38.6781 C   0  0  0  0  0  0
  -27.4401   28.9827  -38.5614 C   0  0  0  0  0  0
  -25.9671   29.3946  -38.7169 C   0  0  0  0  0  0
  -25.5702   30.8695  -38.5518 C   0  0  0  0  0  0
  -24.0274   31.0259  -38.7103 C   0  0  0  0  0  0
  -23.5418   32.1097  -39.7006 C   0  0  0  0  0  0
  -29.8126   27.6492  -39.5810 O   0  0  0  0  0  0
  -29.4130   25.7379  -38.4880 N   0  0  0  0  0  0
  -30.7068   25.2691  -38.7809 O   0  0  0  0  0  0
  -23.1131   31.6311  -41.0190 N   0  0  0  0  0  0
  -22.6883   31.7603  -44.0427 N   0  0  0  0  0  0
  -23.0659   31.7046  -45.2945 C   0  0  0  0  0  0
  -24.3796   31.3093  -45.4926 N   0  0  0  0  0  0
  -24.8725   31.0551  -44.2238 C   0  0  0  0  0  0
  -26.0870   30.6233  -43.8459 N   0  0  0  0  0  0
  -26.2115   30.5399  -42.4989 C   0  0  0  0  0  0
  -25.2938   30.8477  -41.5698 N   0  0  0  0  0  0
  -24.0796   31.2844  -41.9747 C   0  0  0  0  0  0
  -23.8054   31.3819  -43.3486 C   0  0  0  0  0  0
  -25.1213   31.2212  -46.7594 C   0  0  0  0  0  0
  -24.1944   31.2651  -47.9938 C   0  0  0  0  0  0
  -26.1919   32.3276  -46.8186 C   0  0  0  0  0  0
  -27.4129   30.1034  -41.9810 N   0  0  0  0  0  0
  -27.2071   26.9841  -37.7875 H   0  0  0  0  0  0
  -27.0356   27.0743  -39.5230 H   0  0  0  0  0  0
  -28.0493   29.5199  -39.2879 H   0  0  0  0  0  0
  -27.7925   29.2690  -37.5811 H   0  0  0  0  0  0
  -25.3737   28.8690  -37.9810 H   0  0  0  0  0  0
  -25.6374   29.0601  -39.6966 H   0  0  0  0  0  0
  -26.1159   31.4967  -39.2556 H   0  0  0  0  0  0
  -25.8746   31.2307  -37.5701 H   0  0  0  0  0  0
  -23.6083   31.2530  -37.7298 H   0  0  0  0  0  0
  -23.5538   30.0782  -38.9739 H   0  0  0  0  0  0
  -24.2904   32.8974  -39.7980 H   0  0  0  0  0  0
  -22.6718   32.6016  -39.2666 H   0  0  0  0  0  0
  -28.8273   25.0579  -38.0065 H   0  0  0  0  0  0
  -31.1165   25.1792  -37.9107 H   0  0  0  0  0  0
  -22.3876   32.1801  -41.4574 H   0  0  0  0  0  0
  -22.4382   31.9630  -46.1347 H   0  0  0  0  0  0
  -25.6314   30.2588  -46.7477 H   0  0  0  0  0  0
  -24.7597   31.0891  -48.9097 H   0  0  0  0  0  0
  -23.7080   32.2357  -48.0986 H   0  0  0  0  0  0
  -23.4145   30.5025  -47.9414 H   0  0  0  0  0  0
  -26.7788   32.2577  -47.7354 H   0  0  0  0  0  0
  -26.8923   32.2583  -45.9857 H   0  0  0  0  0  0
  -25.7421   33.3210  -46.7910 H   0  0  0  0  0  0
  -28.2026   30.0691  -42.6085 H   0  0  0  0  0  0
  -27.5201   30.1523  -40.9817 H   0  0  0  0  0  0
  1  2  1  0  0  0
  1  8  2  0  0  0
  1  9  1  0  0  0
  2  3  1  0  0  0
  2 25  1  0  0  0
  2 26  1  0  0  0
  3  4  1  0  0  0
  3 27  1  0  0  0
  3 28  1  0  0  0
  4  5  1  0  0  0
  4 29  1  0  0  0
  4 30  1  0  0  0
  5  6  1  0  0  0
  5 31  1  0  0  0
  5 32  1  0  0  0
  6  7  1  0  0  0
  6 33  1  0  0  0
  6 34  1  0  0  0
  7 11  1  0  0  0
  7 35  1  0  0  0
  7 36  1  0  0  0
  9 10  1  0  0  0
  9 37  1  0  0  0
 10 38  1  0  0  0
 11 19  1  0  0  0
 11 39  1  0  0  0
 12 13  2  0  0  0
 12 20  1  0  0  0
 13 14  1  0  0  0
 13 40  1  0  0  0
 14 15  1  0  0  0
 14 21  1  0  0  0
 15 16  2  0  0  0
 15 20  1  0  0  0
 16 17  1  0  0  0
 17 18  2  0  0  0
 17 24  1  0  0  0
 18 19  1  0  0  0
 19 20  2  0  0  0
 21 22  1  0  0  0
 21 23  1  0  0  0
 21 41  1  0  0  0
 22 42  1  0  0  0
 22 43  1  0  0  0
 22 44  1  0  0  0
 23 45  1  0  0  0
 23 46  1  0  0  0
 23 47  1  0  0  0
 24 48  1  0  0  0
 24 49  1  0  0  0
M  END
> <s_m_entry_id>
53099

> <s_m_entry_name>
dock_pv.318

> <s_m_Source_Path>
/home/csk/Desktop/cluster/DUD-E-result/hdac8

> <s_m_Source_File>
dock_pv.maegz

> <i_m_Source_File_Index>
318

> <chembl_id>
CHEMBL3764561

> <chembl_pref_name>
None

> <i_lp_mmshare_version>
53161

> <i_f3d_flags>
0

> <r_lp_tautomer_probability>
1

> <s_lp_Force_Field>
OPLS_2005

> <r_lp_Energy>
17.68328

> <b_lp_Chiralities_Consistent>
1

> <s_lp_Variant>
CHEMBL3192_lig920-1

> <s_i_glide_gridfile>
glide-grid_3f07

> <i_i_glide_lignum>
981

> <i_i_glide_rotatable_bonds>
11

> <r_i_docking_score>
-7.14434228411581

> <r_i_glide_ligand_efficiency>
-0.297680928504825

> <r_i_glide_ligand_efficiency_sa>
-0.858660381539966

> <r_i_glide_ligand_efficiency_ln>
-1.70996894109448

> <r_i_glide_gscore>
-7.14434228411581

> <r_i_glide_lipo>
-0.786271709709603

> <r_i_glide_hbond>
-0.484493041297467

> <r_i_glide_metal>
-2.3

> <r_i_glide_rewards>
-1.12223018457915

> <r_i_glide_evdw>
-16.5636653900146

> <r_i_glide_ecoul>
-19.4048042297363

> <r_i_glide_erotb>
1.5098935747511

> <r_i_glide_esite>
-0.222337019319509

> <r_i_glide_emodel>
-45.0225858621926

> <r_i_glide_energy>
-35.968469619751

> <r_i_glide_einternal>
19.5030689239502

> <i_i_glide_confnum>
9

> <i_i_glide_posenum>
10

> <r_i_glide_eff_state_penalty>
0

> <s_user_duplicate_titles>
CHEMBL3192_lig920

> <s_m_subgroup_title>
dock_pv

> <s_m_subgroupid>
dock_pv

> <b_m_subgroup_collapsed>
1

$$$$
CHEMBL3192_lig75
                    3D
 Schrodinger Suite 2021-1.
 40 42  0  0  1  0            999 V2000
  -22.2272   30.5568  -49.3751 C   0  0  0  0  0  0
  -23.4089   30.4635  -50.1059 C   0  0  0  0  0  0
  -24.5893   30.9890  -49.5834 C   0  0  0  0  0  0
  -24.5920   31.6055  -48.3278 C   0  0  0  0  0  0
  -23.3887   31.7194  -47.6156 C   0  0  0  0  0  0
  -22.2121   31.1892  -48.1351 C   0  0  0  0  0  0
  -25.8954   32.2161  -47.7989 C   0  0  0  0  0  0
  -26.1280   31.9701  -46.3005 C   0  0  0  0  0  0
  -25.8371   33.0063  -45.4866 N   0  0  0  0  0  0
  -26.5256   30.8688  -45.9223 O   0  0  0  0  0  0
  -25.8421   32.9977  -44.1007 C   0  0  0  0  0  0
  -25.4396   34.4809  -43.3071 S   0  0  0  0  0  0
  -25.5865   33.6388  -41.7974 C   0  0  0  0  0  0
  -25.9307   32.3018  -42.0205 C   0  0  0  0  0  0
  -26.0686   31.9800  -43.2982 N   0  0  0  0  0  0
  -26.1370   31.3253  -40.9494 C   0  0  0  0  0  0
  -25.9954   31.5385  -39.5878 C   0  0  0  0  0  0
  -26.3342   30.4421  -38.8004 C   0  0  0  0  0  0
  -26.7172   29.3235  -39.5283 C   0  0  0  0  0  0
  -26.6120   29.6755  -41.2304 S   0  0  0  0  0  0
  -27.1560   27.9632  -39.0353 C   0  0  0  0  0  0
  -28.6471   27.6692  -39.1810 C   0  0  0  0  0  0
  -29.0271   26.4471  -38.7752 N   0  0  0  0  0  0
  -29.4128   28.4910  -39.6805 O   0  0  0  0  0  0
  -30.3835   26.0693  -38.8275 O   0  0  0  0  0  0
  -21.3104   30.1489  -49.7783 H   0  0  0  0  0  0
  -23.4030   29.9971  -51.0796 H   0  0  0  0  0  0
  -25.5013   30.9240  -50.1591 H   0  0  0  0  0  0
  -23.3555   32.2153  -46.6568 H   0  0  0  0  0  0
  -21.2898   31.2702  -47.5774 H   0  0  0  0  0  0
  -26.7543   31.8231  -48.3451 H   0  0  0  0  0  0
  -25.8769   33.2855  -48.0139 H   0  0  0  0  0  0
  -25.5638   33.8752  -45.9188 H   0  0  0  0  0  0
  -25.4119   34.1466  -40.8588 H   0  0  0  0  0  0
  -25.6694   32.4774  -39.1807 H   0  0  0  0  0  0
  -26.3023   30.4716  -37.7217 H   0  0  0  0  0  0
  -26.9082   27.8479  -37.9816 H   0  0  0  0  0  0
  -26.6206   27.1866  -39.5809 H   0  0  0  0  0  0
  -28.4193   25.7313  -38.3810 H   0  0  0  0  0  0
  -30.6518   26.0828  -37.8990 H   0  0  0  0  0  0
  1  6  1  0  0  0
  1  2  2  0  0  0
  1 26  1  0  0  0
  2  3  1  0  0  0
  2 27  1  0  0  0
  3  4  2  0  0  0
  3 28  1  0  0  0
  4  7  1  0  0  0
  4  5  1  0  0  0
  5  6  2  0  0  0
  5 29  1  0  0  0
  6 30  1  0  0  0
  7  8  1  0  0  0
  7 31  1  0  0  0
  7 32  1  0  0  0
  8  9  1  0  0  0
  8 10  2  0  0  0
  9 11  1  0  0  0
  9 33  1  0  0  0
 11 12  1  0  0  0
 11 15  2  0  0  0
 12 13  1  0  0  0
 13 14  2  0  0  0
 13 34  1  0  0  0
 14 16  1  0  0  0
 14 15  1  0  0  0
 16 17  2  0  0  0
 16 20  1  0  0  0
 17 18  1  0  0  0
 17 35  1  0  0  0
 18 19  2  0  0  0
 18 36  1  0  0  0
 19 20  1  0  0  0
 19 21  1  0  0  0
 21 22  1  0  0  0
 21 37  1  0  0  0
 21 38  1  0  0  0
 22 23  1  0  0  0
 22 24  2  0  0  0
 23 25  1  0  0  0
 23 39  1  0  0  0
 25 40  1  0  0  0
M  END
> <s_m_entry_id>
53100

> <s_m_entry_name>
dock_pv.319

> <s_m_Source_Path>
/home/csk/Desktop/cluster/DUD-E-result/hdac8

> <s_m_Source_File>
dock_pv.maegz

> <i_m_Source_File_Index>
319

> <chembl_id>
CHEMBL270887

> <chembl_pref_name>
None

> <i_lp_mmshare_version>
53161

> <i_f3d_flags>
0

> <r_lp_tautomer_probability>
0.999000488399163

> <s_lp_Force_Field>
OPLS_2005

> <r_lp_Energy>
15.070783

> <b_lp_Chiralities_Consistent>
1

> <s_lp_Variant>
CHEMBL3192_lig75-1

> <s_i_glide_gridfile>
glide-grid_3f07

> <i_i_glide_lignum>
77

> <i_i_glide_rotatable_bonds>
9

> <r_i_docking_score>
-7.1404274053569

> <r_i_glide_ligand_efficiency>
-0.285617096214276

> <r_i_glide_ligand_efficiency_sa>
-0.835149454771313

> <r_i_glide_ligand_efficiency_ln>
-1.69249527641169

> <r_i_glide_gscore>
-7.1404274053569

> <r_i_glide_lipo>
-1.14844132188535

> <r_i_glide_hbond>
-0.456658336434524

> <r_i_glide_metal>
-1.67635100810972

> <r_i_glide_rewards>
-1.00162297733554

> <r_i_glide_evdw>
-28.3019752502441

> <r_i_glide_ecoul>
-14.8222694396973

> <r_i_glide_erotb>
0.969962257057489

> <r_i_glide_esite>
-0.188876840182452

> <r_i_glide_emodel>
-62.7598746515872

> <r_i_glide_energy>
-43.1242446899414

> <r_i_glide_einternal>
3.40863180160522

> <i_i_glide_confnum>
6

> <i_i_glide_posenum>
309

> <r_i_glide_eff_state_penalty>
0

> <s_user_duplicate_titles>
CHEMBL3192_lig75,439389

> <s_m_subgroup_title>
dock_pv

> <s_m_subgroupid>
dock_pv

> <b_m_subgroup_collapsed>
1

$$$$
CHEMBL3192_lig949
                    3D
 Schrodinger Suite 2021-1.
 49 51  0  0  1  0            999 V2000
  -27.7561   33.2729  -45.0041 C   0  0  0  0  0  0
  -27.9493   33.1069  -46.3703 C   0  0  0  0  0  0
  -26.9550   32.5352  -47.1568 C   0  0  0  0  0  0
  -26.5826   32.8407  -44.3902 C   0  0  0  0  0  0
  -25.5514   32.2209  -45.1539 C   0  0  0  0  0  0
  -25.7395   32.1094  -46.5701 C   0  0  0  0  0  0
  -24.7678   31.6291  -47.3918 N   0  0  0  0  0  0
  -23.6053   31.2691  -46.8056 C   0  0  0  0  0  0
  -23.3308   31.2690  -45.4829 N   0  0  0  0  0  0
  -24.2973   31.7294  -44.6400 C   0  0  0  0  0  0
  -22.4805   30.8690  -47.7400 C   0  0  0  0  0  0
  -23.9805   31.7128  -43.2491 N   0  0  0  0  0  0
  -24.8056   31.2830  -42.1700 C   0  0  0  0  0  0
  -22.5982   32.0865  -42.8915 C   0  0  0  0  0  0
  -25.9174   30.4674  -42.4226 C   0  0  0  0  0  0
  -26.7658   30.0690  -41.3935 C   0  0  0  0  0  0
  -26.5153   30.4622  -40.0723 C   0  0  0  0  0  0
  -25.3849   31.2278  -39.8020 C   0  0  0  0  0  0
  -24.5429   31.6372  -40.8338 C   0  0  0  0  0  0
  -27.3308   30.1386  -39.0028 O   0  0  0  0  0  0
  -28.7016   29.8338  -39.2556 C   0  0  0  0  0  0
  -28.9313   28.3190  -39.3912 C   0  0  0  0  0  0
  -29.1050   27.5554  -38.0454 C   0  0  0  0  0  0
  -30.0388   26.3307  -38.1189 C   0  0  0  0  0  0
  -30.2130   25.6119  -36.9978 N   0  0  0  0  0  0
  -30.6130   26.0690  -39.1810 O   0  0  0  0  0  0
  -31.0303   24.4704  -37.0636 O   0  0  0  0  0  0
  -28.5281   33.7419  -44.4122 H   0  0  0  0  0  0
  -28.8708   33.4404  -46.8270 H   0  0  0  0  0  0
  -27.0977   32.4328  -48.2233 H   0  0  0  0  0  0
  -26.4545   32.9971  -43.3299 H   0  0  0  0  0  0
  -22.4521   31.5291  -48.6076 H   0  0  0  0  0  0
  -21.5095   30.9442  -47.2502 H   0  0  0  0  0  0
  -22.6137   29.8496  -48.0981 H   0  0  0  0  0  0
  -21.9769   32.3453  -43.7497 H   0  0  0  0  0  0
  -22.5885   32.9743  -42.2586 H   0  0  0  0  0  0
  -22.0958   31.2691  -42.3721 H   0  0  0  0  0  0
  -26.1417   30.1423  -43.4273 H   0  0  0  0  0  0
  -27.6177   29.4561  -41.6382 H   0  0  0  0  0  0
  -25.1739   31.5383  -38.7880 H   0  0  0  0  0  0
  -23.7012   32.2576  -40.5667 H   0  0  0  0  0  0
  -29.0717   30.3610  -40.1376 H   0  0  0  0  0  0
  -29.3115   30.2271  -38.4425 H   0  0  0  0  0  0
  -28.1193   27.8657  -39.9620 H   0  0  0  0  0  0
  -29.8130   28.2168  -40.0188 H   0  0  0  0  0  0
  -29.5339   28.2215  -37.2948 H   0  0  0  0  0  0
  -28.1249   27.2690  -37.6643 H   0  0  0  0  0  0
  -29.7811   25.7494  -36.0930 H   0  0  0  0  0  0
  -30.4048   23.7433  -37.1804 H   0  0  0  0  0  0
  1  2  2  0  0  0
  1  4  1  0  0  0
  1 28  1  0  0  0
  2  3  1  0  0  0
  2 29  1  0  0  0
  3  6  2  0  0  0
  3 30  1  0  0  0
  4  5  2  0  0  0
  4 31  1  0  0  0
  5  6  1  0  0  0
  5 10  1  0  0  0
  6  7  1  0  0  0
  7  8  2  0  0  0
  8  9  1  0  0  0
  8 11  1  0  0  0
  9 10  2  0  0  0
 10 12  1  0  0  0
 11 32  1  0  0  0
 11 33  1  0  0  0
 11 34  1  0  0  0
 12 13  1  0  0  0
 12 14  1  0  0  0
 13 15  2  0  0  0
 13 19  1  0  0  0
 14 35  1  0  0  0
 14 36  1  0  0  0
 14 37  1  0  0  0
 15 16  1  0  0  0
 15 38  1  0  0  0
 16 17  2  0  0  0
 16 39  1  0  0  0
 17 18  1  0  0  0
 17 20  1  0  0  0
 18 19  2  0  0  0
 18 40  1  0  0  0
 19 41  1  0  0  0
 20 21  1  0  0  0
 21 22  1  0  0  0
 21 42  1  0  0  0
 21 43  1  0  0  0
 22 23  1  0  0  0
 22 44  1  0  0  0
 22 45  1  0  0  0
 23 24  1  0  0  0
 23 46  1  0  0  0
 23 47  1  0  0  0
 24 25  1  0  0  0
 24 26  2  0  0  0
 25 27  1  0  0  0
 25 48  1  0  0  0
 27 49  1  0  0  0
M  END
> <s_m_entry_id>
53101

> <s_m_entry_name>
dock_pv.320

> <s_m_Source_Path>
/home/csk/Desktop/cluster/DUD-E-result/hdac8

> <s_m_Source_File>
dock_pv.maegz

> <i_m_Source_File_Index>
320

> <chembl_id>
CHEMBL3775662

> <chembl_pref_name>
None

> <i_lp_mmshare_version>
53161

> <i_f3d_flags>
0

> <r_lp_tautomer_probability>
1

> <s_lp_Force_Field>
OPLS_2005

> <r_lp_Energy>
27.519228

> <b_lp_Chiralities_Consistent>
1

> <s_lp_Variant>
CHEMBL3192_lig949-1

> <s_i_glide_gridfile>
glide-grid_3f07

> <i_i_glide_lignum>
1010

> <i_i_glide_rotatable_bonds>
9

> <r_i_docking_score>
-7.1316978115238

> <r_i_glide_ligand_efficiency>
-0.264136955982363

> <r_i_glide_ligand_efficiency_sa>
-0.792410867076536

> <r_i_glide_ligand_efficiency_ln>
-1.66014167529531

> <r_i_glide_gscore>
-7.1316978115238

> <r_i_glide_lipo>
-1.03692984193856

> <r_i_glide_hbond>
-0.221624371881971

> <r_i_glide_metal>
-2.3

> <r_i_glide_rewards>
-0.846587882775715

> <r_i_glide_evdw>
-34.4338150024414

> <r_i_glide_ecoul>
-13.6782140731812

> <r_i_glide_erotb>
1.14686714617169

> <r_i_glide_esite>
-0.1

> <r_i_glide_emodel>
-69.0936433532053

> <r_i_glide_energy>
-48.1120290756226

> <r_i_glide_einternal>
7.57455444335938

> <i_i_glide_confnum>
24

> <i_i_glide_posenum>
387

> <r_i_glide_eff_state_penalty>
0

> <s_user_duplicate_titles>
CHEMBL3192_lig949

> <s_m_subgroup_title>
dock_pv

> <s_m_subgroupid>
dock_pv

> <b_m_subgroup_collapsed>
1

$$$$
CHEMBL3192_lig382
                    3D
 Schrodinger Suite 2021-1.
 55 56  0  0  1  0            999 V2000
  -23.1452   31.5012  -45.8320 C   0  0  0  0  0  0
  -24.2210   30.4159  -44.8728 S   0  0  0  0  0  0
  -25.0741   31.7847  -44.0497 C   0  0  0  0  0  0
  -25.4699   32.9195  -45.4199 S   0  0  0  0  0  0
  -24.0536   32.5370  -46.4974 C   0  0  0  0  0  0
  -26.5381   32.4916  -42.2230 C   0  0  2  0  0  0
  -26.3179   31.3785  -43.2650 C   0  0  0  0  0  0
  -24.2262   32.4509  -42.9604 C   0  0  0  0  0  0
  -25.2019   33.1149  -42.0904 N   0  0  0  0  0  0
  -27.1359   31.9069  -40.9141 C   0  0  0  0  0  0
  -26.2728   31.4313  -40.0016 N   0  0  0  0  0  0
  -28.3585   31.8276  -40.7801 O   0  0  0  0  0  0
  -26.6138   30.7045  -38.7832 C   0  0  0  0  0  0
  -26.4126   29.1954  -38.9553 C   0  0  0  0  0  0
  -27.4178   28.4735  -39.8783 C   0  0  0  0  0  0
  -28.8662   28.4358  -39.3489 C   0  0  0  0  0  0
  -29.0440   27.6111  -38.0424 C   0  0  0  0  0  0
  -29.9850   26.3957  -38.1125 C   0  0  0  0  0  0
  -30.2134   25.7738  -36.9443 N   0  0  0  0  0  0
  -30.5197   26.0691  -39.1810 O   0  0  0  0  0  0
  -31.1396   24.7220  -36.9153 O   0  0  0  0  0  0
  -24.9473   34.2107  -41.3234 C   0  0  0  0  0  0
  -23.4600   34.6656  -41.0717 C   0  0  1  0  0  0
  -25.8739   34.8233  -40.7805 O   0  0  0  0  0  0
  -23.4152   35.6682  -39.9813 N   0  0  0  0  0  0
  -22.4194   33.5383  -40.7855 C   0  0  0  0  0  0
  -22.9131   32.4836  -39.9810 O   0  0  0  0  0  0
  -22.4264   31.9659  -45.1565 H   0  0  0  0  0  0
  -22.5864   30.9202  -46.5661 H   0  0  0  0  0  0
  -23.5117   33.4530  -46.7336 H   0  0  0  0  0  0
  -24.4617   32.1419  -47.4284 H   0  0  0  0  0  0
  -27.2764   33.2161  -42.5683 H   0  0  0  0  0  0
  -26.1093   30.4230  -42.7778 H   0  0  0  0  0  0
  -27.1953   31.2143  -43.8916 H   0  0  0  0  0  0
  -23.7105   31.6708  -42.3989 H   0  0  0  0  0  0
  -23.5127   33.1402  -43.4123 H   0  0  0  0  0  0
  -25.2911   31.6313  -40.1376 H   0  0  0  0  0  0
  -27.6501   30.8690  -38.5008 H   0  0  0  0  0  0
  -26.0084   31.0857  -37.9587 H   0  0  0  0  0  0
  -26.4072   28.7188  -37.9810 H   0  0  0  0  0  0
  -25.4124   29.0573  -39.3467 H   0  0  0  0  0  0
  -27.0763   27.4493  -40.0420 H   0  0  0  0  0  0
  -27.4071   28.9397  -40.8645 H   0  0  0  0  0  0
  -29.5056   28.0708  -40.1478 H   0  0  0  0  0  0
  -29.2251   29.4528  -39.1870 H   0  0  0  0  0  0
  -29.4131   28.2776  -37.2597 H   0  0  0  0  0  0
  -28.0776   27.2581  -37.6880 H   0  0  0  0  0  0
  -29.8363   26.0060  -36.0339 H   0  0  0  0  0  0
  -31.8865   25.0881  -36.4342 H   0  0  0  0  0  0
  -23.1366   35.1652  -41.9853 H   0  0  0  0  0  0
  -23.8392   35.2728  -39.1404 H   0  0  0  0  0  0
  -22.4679   35.8988  -39.7194 H   0  0  0  0  0  0
  -22.0277   33.1180  -41.7100 H   0  0  0  0  0  0
  -21.5413   33.9489  -40.2834 H   0  0  0  0  0  0
  -22.9883   32.8286  -39.0780 H   0  0  0  0  0  0
  1  5  1  0  0  0
  1  2  1  0  0  0
  1 28  1  0  0  0
  1 29  1  0  0  0
  2  3  1  0  0  0
  3  4  1  0  0  0
  3  7  1  0  0  0
  3  8  1  0  0  0
  4  5  1  0  0  0
  5 30  1  0  0  0
  5 31  1  0  0  0
  6  9  1  0  0  0
  6 10  1  0  0  0
  6  7  1  0  0  0
  6 32  1  0  0  0
  7 33  1  0  0  0
  7 34  1  0  0  0
  8  9  1  0  0  0
  8 35  1  0  0  0
  8 36  1  0  0  0
  9 22  1  0  0  0
 10 11  1  0  0  0
 10 12  2  0  0  0
 11 13  1  0  0  0
 11 37  1  0  0  0
 13 14  1  0  0  0
 13 38  1  0  0  0
 13 39  1  0  0  0
 14 15  1  0  0  0
 14 40  1  0  0  0
 14 41  1  0  0  0
 15 16  1  0  0  0
 15 42  1  0  0  0
 15 43  1  0  0  0
 16 17  1  0  0  0
 16 44  1  0  0  0
 16 45  1  0  0  0
 17 18  1  0  0  0
 17 46  1  0  0  0
 17 47  1  0  0  0
 18 19  1  0  0  0
 18 20  2  0  0  0
 19 21  1  0  0  0
 19 48  1  0  0  0
 21 49  1  0  0  0
 22 23  1  0  0  0
 22 24  2  0  0  0
 23 25  1  0  0  0
 23 26  1  0  0  0
 23 50  1  0  0  0
 25 51  1  0  0  0
 25 52  1  0  0  0
 26 27  1  0  0  0
 26 53  1  0  0  0
 26 54  1  0  0  0
 27 55  1  0  0  0
M  END
> <s_m_entry_id>
53102

> <s_m_entry_name>
dock_pv.321

> <s_m_Source_Path>
/home/csk/Desktop/cluster/DUD-E-result/hdac8

> <s_m_Source_File>
dock_pv.maegz

> <i_m_Source_File_Index>
321

> <chembl_id>
CHEMBL1835411

> <chembl_pref_name>
None

> <i_lp_mmshare_version>
53161

> <i_f3d_flags>
0

> <r_lp_tautomer_probability>
1

> <s_lp_Force_Field>
OPLS_2005

> <r_lp_Energy>
27.073485

> <b_lp_Chiralities_Consistent>
1

> <s_lp_Variant>
CHEMBL3192_lig382-1

> <s_i_glide_gridfile>
glide-grid_3f07

> <i_i_glide_lignum>
401

> <i_i_glide_rotatable_bonds>
14

> <r_i_docking_score>
-7.12225913879756

> <r_i_glide_ligand_efficiency>
-0.263787375511021

> <r_i_glide_ligand_efficiency_sa>
-0.791362125663662

> <r_i_glide_ligand_efficiency_ln>
-1.65794450789333

> <r_i_glide_gscore>
-7.12225913879756

> <r_i_glide_lipo>
-0.844177823853485

> <r_i_glide_hbond>
-0.458056013290116

> <r_i_glide_metal>
-2.3

> <r_i_glide_rewards>
-0.611847169514915

> <r_i_glide_evdw>
-31.5875682830811

> <r_i_glide_ecoul>
-16.5039005279541

> <r_i_glide_erotb>
1.34297680483569

> <r_i_glide_esite>
-0.196191443627566

> <r_i_glide_emodel>
-70.3101454558899

> <r_i_glide_energy>
-48.0914688110352

> <r_i_glide_einternal>
9.29641246795654

> <i_i_glide_confnum>
354

> <i_i_glide_posenum>
388

> <r_i_glide_eff_state_penalty>
0

> <s_user_duplicate_titles>
CHEMBL3192_lig382

> <s_m_subgroup_title>
dock_pv

> <s_m_subgroupid>
dock_pv

> <b_m_subgroup_collapsed>
1

$$$$
CHEMBL3192_lig466
                    3D
 Schrodinger Suite 2021-1.
 40 40  0  0  1  0            999 V2000
  -23.0546   31.1243  -44.7626 C   0  0  0  0  0  0
  -23.8130   31.0565  -45.9276 C   0  0  0  0  0  0
  -25.1908   30.8690  -45.8644 C   0  0  0  0  0  0
  -23.6780   30.9953  -43.5245 C   0  0  0  0  0  0
  -25.0632   30.7863  -43.4456 C   0  0  0  0  0  0
  -25.8129   30.7181  -44.6284 C   0  0  0  0  0  0
  -25.7495   30.5933  -42.1280 C   0  0  0  0  0  0
  -25.0760   31.2201  -40.8899 C   0  0  0  0  0  0
  -26.8643   30.0794  -42.0326 O   0  0  0  0  0  0
  -25.9859   31.5435  -39.6761 C   0  0  0  0  0  0
  -26.0019   30.4844  -38.5516 C   0  0  0  0  0  0
  -26.7153   29.1595  -38.8702 C   0  0  0  0  0  0
  -28.2195   29.2997  -39.1705 C   0  0  0  0  0  0
  -28.9222   27.9496  -39.3684 C   0  0  0  0  0  0
  -29.2736   27.2354  -38.0352 C   0  0  0  0  0  0
  -30.3128   26.1100  -38.1625 C   0  0  0  0  0  0
  -30.4380   25.2690  -37.1220 N   0  0  0  0  0  0
  -31.4130   24.2591  -37.1897 O   0  0  0  0  0  0
  -31.0130   26.0690  -39.1810 O   0  0  0  0  0  0
  -22.9556   31.1923  -47.6208 Br  0  0  0  0  0  0
  -21.9847   31.2690  -44.8205 H   0  0  0  0  0  0
  -25.7735   30.8192  -46.7725 H   0  0  0  0  0  0
  -23.0646   31.0453  -42.6358 H   0  0  0  0  0  0
  -26.8821   30.5559  -44.6015 H   0  0  0  0  0  0
  -24.2264   30.6098  -40.5829 H   0  0  0  0  0  0
  -24.6489   32.1668  -41.2223 H   0  0  0  0  0  0
  -25.6159   32.4690  -39.2358 H   0  0  0  0  0  0
  -27.0002   31.7913  -39.9908 H   0  0  0  0  0  0
  -24.9724   30.2699  -38.2599 H   0  0  0  0  0  0
  -26.4634   30.9184  -37.6638 H   0  0  0  0  0  0
  -26.2170   28.6771  -39.7106 H   0  0  0  0  0  0
  -26.5870   28.4867  -38.0216 H   0  0  0  0  0  0
  -28.7205   29.8556  -38.3810 H   0  0  0  0  0  0
  -28.3625   29.8991  -40.0671 H   0  0  0  0  0  0
  -29.8130   28.1413  -39.9671 H   0  0  0  0  0  0
  -28.2893   27.3023  -39.9787 H   0  0  0  0  0  0
  -28.3583   26.8690  -37.5810 H   0  0  0  0  0  0
  -29.6941   27.9562  -37.3316 H   0  0  0  0  0  0
  -29.9001   25.2518  -36.2654 H   0  0  0  0  0  0
  -30.9004   23.4627  -37.3793 H   0  0  0  0  0  0
  1  2  2  0  0  0
  1  4  1  0  0  0
  1 21  1  0  0  0
  2  3  1  0  0  0
  2 20  1  0  0  0
  3  6  2  0  0  0
  3 22  1  0  0  0
  4  5  2  0  0  0
  4 23  1  0  0  0
  5  6  1  0  0  0
  5  7  1  0  0  0
  6 24  1  0  0  0
  7  8  1  0  0  0
  7  9  2  0  0  0
  8 10  1  0  0  0
  8 25  1  0  0  0
  8 26  1  0  0  0
 10 11  1  0  0  0
 10 27  1  0  0  0
 10 28  1  0  0  0
 11 12  1  0  0  0
 11 29  1  0  0  0
 11 30  1  0  0  0
 12 13  1  0  0  0
 12 31  1  0  0  0
 12 32  1  0  0  0
 13 14  1  0  0  0
 13 33  1  0  0  0
 13 34  1  0  0  0
 14 15  1  0  0  0
 14 35  1  0  0  0
 14 36  1  0  0  0
 15 16  1  0  0  0
 15 37  1  0  0  0
 15 38  1  0  0  0
 16 17  1  0  0  0
 16 19  2  0  0  0
 17 18  1  0  0  0
 17 39  1  0  0  0
 18 40  1  0  0  0
M  END
> <s_m_entry_id>
53103

> <s_m_entry_name>
dock_pv.322

> <s_m_Source_Path>
/home/csk/Desktop/cluster/DUD-E-result/hdac8

> <s_m_Source_File>
dock_pv.maegz

> <i_m_Source_File_Index>
322

> <chembl_id>
CHEMBL2235259

> <chembl_pref_name>
None

> <i_lp_mmshare_version>
53161

> <i_f3d_flags>
0

> <r_lp_tautomer_probability>
0.99990000499975

> <s_lp_Force_Field>
OPLS_2005

> <r_lp_Energy>
25.980142

> <b_lp_Chiralities_Consistent>
1

> <s_lp_Variant>
CHEMBL3192_lig466-1

> <s_i_glide_gridfile>
glide-grid_3f07

> <i_i_glide_lignum>
487

> <i_i_glide_rotatable_bonds>
11

> <r_i_docking_score>
-7.12112006109654

> <r_i_glide_ligand_efficiency>
-0.356056003054827

> <r_i_glide_ligand_efficiency_sa>
-0.966484686221283

> <r_i_glide_ligand_efficiency_ln>
-1.78218148103368

> <r_i_glide_gscore>
-7.12112006109654

> <r_i_glide_lipo>
-1.13134983164033

> <r_i_glide_hbond>
-0.237509748208667

> <r_i_glide_metal>
-2.3

> <r_i_glide_rewards>
-1.07571648521668

> <r_i_glide_evdw>
-31.6701736450195

> <r_i_glide_ecoul>
-14.3332738876343

> <r_i_glide_erotb>
1.45695576936525

> <r_i_glide_esite>
-0.1

> <r_i_glide_emodel>
-65.8126781808772

> <r_i_glide_energy>
-46.0034475326538

> <r_i_glide_einternal>
8.07592296600342

> <i_i_glide_confnum>
18

> <i_i_glide_posenum>
341

> <r_i_glide_eff_state_penalty>
0

> <s_user_duplicate_titles>
CHEMBL3192_lig466

> <s_m_subgroup_title>
dock_pv

> <s_m_subgroupid>
dock_pv

> <b_m_subgroup_collapsed>
1

$$$$
CHEMBL3192_lig816
                    3D
 Schrodinger Suite 2021-1.
 52 54  0  0  1  0            999 V2000
  -28.3682   35.9459  -39.0103 C   0  0  0  0  0  0
  -27.9694   36.2093  -40.4789 C   0  0  0  0  0  0
  -29.1389   36.0831  -41.4748 C   0  0  0  0  0  0
  -26.7263   35.4091  -40.9410 C   0  0  0  0  0  0
  -26.8357   33.8858  -40.9726 C   0  0  0  0  0  0
  -27.7801   33.1929  -40.3810 N   0  0  0  0  0  0
  -27.4130   31.8879  -40.5249 C   0  0  0  0  0  0
  -28.0139   30.7365  -39.9904 C   0  0  0  0  0  0
  -27.4721   29.4864  -40.3165 C   0  0  0  0  0  0
  -28.0447   28.2221  -39.7960 C   0  0  0  0  0  0
  -28.8306   28.0771  -38.7058 C   0  0  0  0  0  0
  -29.4658   26.8266  -38.3535 C   0  0  0  0  0  0
  -29.8130   25.9860  -39.1810 O   0  0  0  0  0  0
  -29.8130   26.7350  -37.0655 N   0  0  0  0  0  0
  -30.5337   25.6069  -36.6343 O   0  0  0  0  0  0
  -26.3735   29.4216  -41.1810 C   0  0  0  0  0  0
  -25.7229   30.5442  -41.6858 C   0  0  0  0  0  0
  -26.2585   31.7811  -41.3340 C   0  0  0  0  0  0
  -25.8877   33.0870  -41.5917 N   0  0  0  0  0  0
  -24.6940   33.5273  -42.3248 C   0  0  0  0  0  0
  -24.6783   33.0838  -43.8087 C   0  0  0  0  0  0
  -25.9671   33.3237  -44.5905 C   0  0  0  0  0  0
  -26.5121   34.6078  -44.6821 C   0  0  0  0  0  0
  -27.6833   34.8178  -45.4068 C   0  0  0  0  0  0
  -28.2962   33.7470  -46.0548 C   0  0  0  0  0  0
  -27.7476   32.4690  -45.9811 C   0  0  0  0  0  0
  -26.5889   32.2548  -45.2412 C   0  0  0  0  0  0
  -28.7340   34.9418  -38.8271 H   0  0  0  0  0  0
  -27.5101   36.0690  -38.3495 H   0  0  0  0  0  0
  -29.1414   36.6395  -38.6797 H   0  0  0  0  0  0
  -27.6697   37.2590  -40.5089 H   0  0  0  0  0  0
  -29.4811   35.0555  -41.5810 H   0  0  0  0  0  0
  -29.9868   36.7016  -41.1810 H   0  0  0  0  0  0
  -28.8356   36.4170  -42.4680 H   0  0  0  0  0  0
  -25.8803   35.6690  -40.3049 H   0  0  0  0  0  0
  -26.4666   35.7772  -41.9324 H   0  0  0  0  0  0
  -28.8792   30.8196  -39.3514 H   0  0  0  0  0  0
  -27.8130   27.3440  -40.3810 H   0  0  0  0  0  0
  -29.0345   28.9108  -38.0506 H   0  0  0  0  0  0
  -29.4937   27.3290  -36.3060 H   0  0  0  0  0  0
  -29.8766   25.0764  -36.1736 H   0  0  0  0  0  0
  -25.9860   28.4690  -41.4863 H   0  0  0  0  0  0
  -24.8486   30.4522  -42.3108 H   0  0  0  0  0  0
  -24.5911   34.6093  -42.2592 H   0  0  0  0  0  0
  -23.8208   33.1302  -41.8045 H   0  0  0  0  0  0
  -23.8732   33.6076  -44.3257 H   0  0  0  0  0  0
  -24.4011   32.0316  -43.8690 H   0  0  0  0  0  0
  -26.0281   35.4428  -44.1983 H   0  0  0  0  0  0
  -28.1081   35.8085  -45.4757 H   0  0  0  0  0  0
  -29.1994   33.9092  -46.6264 H   0  0  0  0  0  0
  -28.2130   31.6419  -46.4956 H   0  0  0  0  0  0
  -26.1733   31.2593  -45.1844 H   0  0  0  0  0  0
  1  2  1  0  0  0
  1 28  1  0  0  0
  1 29  1  0  0  0
  1 30  1  0  0  0
  2  3  1  0  0  0
  2  4  1  0  0  0
  2 31  1  0  0  0
  3 32  1  0  0  0
  3 33  1  0  0  0
  3 34  1  0  0  0
  4  5  1  0  0  0
  4 35  1  0  0  0
  4 36  1  0  0  0
  5  6  2  0  0  0
  5 19  1  0  0  0
  6  7  1  0  0  0
  7  8  2  0  0  0
  7 18  1  0  0  0
  8  9  1  0  0  0
  8 37  1  0  0  0
  9 10  1  0  0  0
  9 16  2  0  0  0
 10 11  2  0  0  0
 10 38  1  0  0  0
 11 12  1  0  0  0
 11 39  1  0  0  0
 12 13  2  0  0  0
 12 14  1  0  0  0
 14 15  1  0  0  0
 14 40  1  0  0  0
 15 41  1  0  0  0
 16 17  1  0  0  0
 16 42  1  0  0  0
 17 18  2  0  0  0
 17 43  1  0  0  0
 18 19  1  0  0  0
 19 20  1  0  0  0
 20 21  1  0  0  0
 20 44  1  0  0  0
 20 45  1  0  0  0
 21 22  1  0  0  0
 21 46  1  0  0  0
 21 47  1  0  0  0
 22 23  2  0  0  0
 22 27  1  0  0  0
 23 24  1  0  0  0
 23 48  1  0  0  0
 24 25  2  0  0  0
 24 49  1  0  0  0
 25 26  1  0  0  0
 25 50  1  0  0  0
 26 27  2  0  0  0
 26 51  1  0  0  0
 27 52  1  0  0  0
M  END
> <s_m_entry_id>
53104

> <s_m_entry_name>
dock_pv.323

> <s_m_Source_Path>
/home/csk/Desktop/cluster/DUD-E-result/hdac8

> <s_m_Source_File>
dock_pv.maegz

> <i_m_Source_File_Index>
323

> <chembl_id>
CHEMBL3648266

> <chembl_pref_name>
None

> <i_lp_mmshare_version>
53161

> <i_f3d_flags>
0

> <r_lp_tautomer_probability>
1

> <s_lp_Force_Field>
OPLS_2005

> <r_lp_Energy>
28.557132

> <b_lp_Chiralities_Consistent>
1

> <s_lp_Variant>
CHEMBL3192_lig816-1

> <s_i_glide_gridfile>
glide-grid_3f07

> <i_i_glide_lignum>
870

> <i_i_glide_rotatable_bonds>
9

> <r_i_docking_score>
-7.11355283859817

> <r_i_glide_ligand_efficiency>
-0.26346491994808

> <r_i_glide_ligand_efficiency_sa>
-0.790394758975903

> <r_i_glide_ligand_efficiency_ln>
-1.65591782474148

> <r_i_glide_gscore>
-7.11355283859817

> <r_i_glide_lipo>
-1.01948705479162

> <r_i_glide_hbond>
-0.284996185708682

> <r_i_glide_metal>
-2.3

> <r_i_glide_rewards>
-1.20014108385575

> <r_i_glide_evdw>
-26.1830234527588

> <r_i_glide_ecoul>
-11.8033685684204

> <r_i_glide_erotb>
1.01814725586212

> <r_i_glide_esite>
-0.247419312203232

> <r_i_glide_emodel>
-55.611835927053

> <r_i_glide_energy>
-37.9863920211792

> <r_i_glide_einternal>
4.59182453155518

> <i_i_glide_confnum>
22

> <i_i_glide_posenum>
229

> <r_i_glide_eff_state_penalty>
0

> <s_user_duplicate_titles>
CHEMBL3192_lig816

> <s_m_subgroup_title>
dock_pv

> <s_m_subgroupid>
dock_pv

> <b_m_subgroup_collapsed>
1

$$$$
CHEMBL3192_lig1045
                    3D
 Schrodinger Suite 2021-1.
 47 50  0  0  1  0            999 V2000
  -30.4037   25.8394  -37.1911 O   0  0  0  0  0  0
  -29.4136   26.7693  -37.5619 N   0  0  0  0  0  0
  -29.3923   27.2395  -38.8049 C   0  0  0  0  0  0
  -30.2230   26.8682  -39.6262 O   0  0  0  0  0  0
  -28.3559   28.3003  -39.1148 C   0  0  0  0  0  0
  -27.1830   28.3421  -38.3758 C   0  0  0  0  0  0
  -26.2214   29.3158  -38.5859 C   0  0  0  0  0  0
  -26.3709   30.2757  -39.5720 C   0  0  0  0  0  0
  -25.2416   31.2849  -39.7909 C   0  0  0  0  0  0
  -25.6531   32.4557  -40.7053 C   0  0  0  0  0  0
  -26.4363   31.9631  -41.9316 C   0  0  2  0  0  0
  -27.7309   31.2677  -41.4724 C   0  0  0  0  0  0
  -27.5345   30.2387  -40.3696 C   0  0  0  0  0  0
  -28.5211   29.2662  -40.1197 C   0  0  0  0  0  0
  -25.5979   31.0419  -42.7049 N   0  0  0  0  0  0
  -25.3441   31.2041  -44.0711 C   0  0  0  0  0  0
  -24.1921   30.6401  -44.5123 N   0  0  0  0  0  0
  -23.8657   30.8691  -45.8083 C   0  0  0  0  0  0
  -24.6927   31.5840  -46.6742 C   0  0  0  0  0  0
  -25.8999   32.0763  -46.1594 C   0  0  0  0  0  0
  -26.2137   31.9135  -44.8418 N   0  0  0  0  0  0
  -26.8850   32.8389  -46.9899 C   0  0  0  0  0  0
  -27.5092   33.9732  -46.4427 C   0  0  0  0  0  0
  -28.4045   34.7411  -47.1853 C   0  0  0  0  0  0
  -28.6970   34.3876  -48.4986 C   0  0  0  0  0  0
  -29.8019   35.3345  -49.4268 Cl  0  0  0  0  0  0
  -28.1091   33.2573  -49.0570 C   0  0  0  0  0  0
  -27.2192   32.4770  -48.3149 C   0  0  0  0  0  0
  -26.6142   31.0404  -49.0746 Cl  0  0  0  0  0  0
  -30.9693   26.3296  -36.5864 H   0  0  0  0  0  0
  -28.8241   27.0676  -36.7969 H   0  0  0  0  0  0
  -27.0117   27.6106  -37.6025 H   0  0  0  0  0  0
  -25.3223   29.3026  -37.9880 H   0  0  0  0  0  0
  -24.8885   31.6691  -38.8322 H   0  0  0  0  0  0
  -24.3921   30.7599  -40.2302 H   0  0  0  0  0  0
  -26.2655   33.1581  -40.1372 H   0  0  0  0  0  0
  -24.7699   33.0188  -41.0109 H   0  0  0  0  0  0
  -26.7135   32.8151  -42.5547 H   0  0  0  0  0  0
  -28.2089   30.7976  -42.3268 H   0  0  0  0  0  0
  -28.4213   32.0243  -41.1009 H   0  0  0  0  0  0
  -29.4189   29.2699  -40.7220 H   0  0  0  0  0  0
  -25.0118   30.4088  -42.1829 H   0  0  0  0  0  0
  -22.9215   30.4704  -46.1475 H   0  0  0  0  0  0
  -24.3977   31.7538  -47.6986 H   0  0  0  0  0  0
  -27.2856   34.2777  -45.4299 H   0  0  0  0  0  0
  -28.8671   35.6113  -46.7425 H   0  0  0  0  0  0
  -28.3586   32.9723  -50.0686 H   0  0  0  0  0  0
  1  2  1  0  0  0
  1 30  1  0  0  0
  2  3  1  0  0  0
  2 31  1  0  0  0
  3  4  2  0  0  0
  3  5  1  0  0  0
  5  6  2  0  0  0
  5 14  1  0  0  0
  6  7  1  0  0  0
  6 32  1  0  0  0
  7  8  2  0  0  0
  7 33  1  0  0  0
  8  9  1  0  0  0
  8 13  1  0  0  0
  9 10  1  0  0  0
  9 34  1  0  0  0
  9 35  1  0  0  0
 10 11  1  0  0  0
 10 36  1  0  0  0
 10 37  1  0  0  0
 11 12  1  0  0  0
 11 15  1  0  0  0
 11 38  1  0  0  0
 12 13  1  0  0  0
 12 39  1  0  0  0
 12 40  1  0  0  0
 13 14  2  0  0  0
 14 41  1  0  0  0
 15 16  1  0  0  0
 15 42  1  0  0  0
 16 17  2  0  0  0
 16 21  1  0  0  0
 17 18  1  0  0  0
 18 19  2  0  0  0
 18 43  1  0  0  0
 19 20  1  0  0  0
 19 44  1  0  0  0
 20 21  2  0  0  0
 20 22  1  0  0  0
 22 23  2  0  0  0
 22 28  1  0  0  0
 23 24  1  0  0  0
 23 45  1  0  0  0
 24 25  2  0  0  0
 24 46  1  0  0  0
 25 26  1  0  0  0
 25 27  1  0  0  0
 27 28  2  0  0  0
 27 47  1  0  0  0
 28 29  1  0  0  0
M  END
> <s_m_entry_id>
53105

> <s_m_entry_name>
dock_pv.324

> <s_m_Source_Path>
/home/csk/Desktop/cluster/DUD-E-result/hdac8

> <s_m_Source_File>
dock_pv.maegz

> <i_m_Source_File_Index>
324

> <chembl_id>
CHEMBL3694294

> <chembl_pref_name>
None

> <i_lp_mmshare_version>
53161

> <i_f3d_flags>
0

> <r_lp_tautomer_probability>
0.999999987636

> <s_lp_Force_Field>
OPLS_2005

> <r_lp_Energy>
23.825098

> <b_lp_Chiralities_Consistent>
1

> <s_lp_Variant>
CHEMBL3192_lig1045-1

> <s_i_glide_gridfile>
glide-grid_3f07

> <i_i_glide_lignum>
1129

> <i_i_glide_rotatable_bonds>
6

> <r_i_docking_score>
-7.10887176589857

> <r_i_glide_ligand_efficiency>
-0.245133509168916

> <r_i_glide_ligand_efficiency_sa>
-0.753127803913742

> <r_i_glide_ligand_efficiency_ln>
-1.62775136895652

> <r_i_glide_gscore>
-7.10887176589857

> <r_i_glide_lipo>
-1.20608563808929

> <r_i_glide_hbond>
-0.608

> <r_i_glide_metal>
-1.79574600929519

> <r_i_glide_rewards>
-0.746525265799263

> <r_i_glide_evdw>
-25.8960876464844

> <r_i_glide_ecoul>
-11.9787902832031

> <r_i_glide_erotb>
0.539108072089861

> <r_i_glide_esite>
-0.2

> <r_i_glide_emodel>
-53.0424315421209

> <r_i_glide_energy>
-37.8748779296875

> <r_i_glide_einternal>
3.18829822540283

> <i_i_glide_confnum>
48

> <i_i_glide_posenum>
370

> <r_i_glide_eff_state_penalty>
0

> <s_user_duplicate_titles>
CHEMBL3192_lig1045

> <s_m_subgroup_title>
dock_pv

> <s_m_subgroupid>
dock_pv

> <b_m_subgroup_collapsed>
1

$$$$
CHEMBL3192_lig1054
                    3D
 Schrodinger Suite 2021-1.
 46 49  0  0  1  0            999 V2000
  -30.2116   25.3555  -37.3861 O   0  0  0  0  0  0
  -29.4133   26.5060  -37.5542 N   0  0  0  0  0  0
  -29.4129   27.1212  -38.7416 C   0  0  0  0  0  0
  -30.2567   26.8327  -39.5820 O   0  0  0  0  0  0
  -28.4394   28.2556  -38.9766 C   0  0  0  0  0  0
  -27.1910   28.2382  -38.3809 C   0  0  0  0  0  0
  -26.2722   29.2671  -38.5647 C   0  0  0  0  0  0
  -26.5536   30.3444  -39.3850 C   0  0  0  0  0  0
  -25.4637   31.3829  -39.6686 C   0  0  0  0  0  0
  -26.0172   32.6909  -40.2557 C   0  0  0  0  0  0
  -27.0133   32.3844  -41.3658 C   0  0  1  0  0  0
  -28.2202   31.6209  -40.7843 C   0  0  0  0  0  0
  -27.8271   30.4017  -39.9820 C   0  0  0  0  0  0
  -28.7434   29.3515  -39.7926 C   0  0  0  0  0  0
  -27.4595   33.6405  -41.9771 N   0  0  0  0  0  0
  -27.4096   33.8692  -43.3598 C   0  0  0  0  0  0
  -28.2050   34.8670  -43.8205 N   0  0  0  0  0  0
  -28.1833   35.0907  -45.1591 C   0  0  0  0  0  0
  -27.3646   34.3655  -46.0279 C   0  0  0  0  0  0
  -26.5481   33.3728  -45.4683 C   0  0  0  0  0  0
  -26.5883   33.1096  -44.1333 N   0  0  0  0  0  0
  -25.5433   32.6070  -46.2667 C   0  0  0  0  0  0
  -24.3584   32.1208  -45.6877 C   0  0  0  0  0  0
  -23.4123   31.4523  -46.4641 C   0  0  0  0  0  0
  -23.6705   31.2696  -47.8216 C   0  0  0  0  0  0
  -22.5153   30.4225  -48.7835 Cl  0  0  0  0  0  0
  -24.8129   31.7060  -48.4080 N   0  0  0  0  0  0
  -25.7188   32.3616  -47.6370 C   0  0  0  0  0  0
  -29.5775   24.6274  -37.3779 H   0  0  0  0  0  0
  -28.8416   26.7279  -36.7446 H   0  0  0  0  0  0
  -26.9481   27.4186  -37.7239 H   0  0  0  0  0  0
  -25.3039   29.2064  -38.0898 H   0  0  0  0  0  0
  -24.8921   31.6001  -38.7645 H   0  0  0  0  0  0
  -24.7579   30.9471  -40.3774 H   0  0  0  0  0  0
  -26.5104   33.2630  -39.4691 H   0  0  0  0  0  0
  -25.1950   33.3112  -40.6165 H   0  0  0  0  0  0
  -26.5223   31.7478  -42.1041 H   0  0  0  0  0  0
  -28.8665   31.2691  -41.5811 H   0  0  0  0  0  0
  -28.7973   32.2719  -40.1346 H   0  0  0  0  0  0
  -29.7138   29.4146  -40.2653 H   0  0  0  0  0  0
  -27.9621   34.3034  -41.4091 H   0  0  0  0  0  0
  -28.8215   35.8807  -45.5281 H   0  0  0  0  0  0
  -27.3434   34.5981  -47.0816 H   0  0  0  0  0  0
  -24.1546   32.2790  -44.6382 H   0  0  0  0  0  0
  -22.4951   31.0898  -46.0221 H   0  0  0  0  0  0
  -26.6090   32.6907  -48.1524 H   0  0  0  0  0  0
  1  2  1  0  0  0
  1 29  1  0  0  0
  2  3  1  0  0  0
  2 30  1  0  0  0
  3  4  2  0  0  0
  3  5  1  0  0  0
  5  6  2  0  0  0
  5 14  1  0  0  0
  6  7  1  0  0  0
  6 31  1  0  0  0
  7  8  2  0  0  0
  7 32  1  0  0  0
  8  9  1  0  0  0
  8 13  1  0  0  0
  9 10  1  0  0  0
  9 33  1  0  0  0
  9 34  1  0  0  0
 10 11  1  0  0  0
 10 35  1  0  0  0
 10 36  1  0  0  0
 11 12  1  0  0  0
 11 15  1  0  0  0
 11 37  1  0  0  0
 12 13  1  0  0  0
 12 38  1  0  0  0
 12 39  1  0  0  0
 13 14  2  0  0  0
 14 40  1  0  0  0
 15 16  1  0  0  0
 15 41  1  0  0  0
 16 17  2  0  0  0
 16 21  1  0  0  0
 17 18  1  0  0  0
 18 19  2  0  0  0
 18 42  1  0  0  0
 19 20  1  0  0  0
 19 43  1  0  0  0
 20 21  2  0  0  0
 20 22  1  0  0  0
 22 23  2  0  0  0
 22 28  1  0  0  0
 23 24  1  0  0  0
 23 44  1  0  0  0
 24 25  2  0  0  0
 24 45  1  0  0  0
 25 26  1  0  0  0
 25 27  1  0  0  0
 27 28  2  0  0  0
 28 46  1  0  0  0
M  END
> <s_m_entry_id>
53106

> <s_m_entry_name>
dock_pv.325

> <s_m_Source_Path>
/home/csk/Desktop/cluster/DUD-E-result/hdac8

> <s_m_Source_File>
dock_pv.maegz

> <i_m_Source_File_Index>
325

> <chembl_id>
CHEMBL3694302

> <chembl_pref_name>
None

> <i_lp_mmshare_version>
53161

> <i_f3d_flags>
0

> <r_lp_tautomer_probability>
0.999999987636

> <s_lp_Force_Field>
OPLS_2005

> <r_lp_Energy>
27.514552

> <b_lp_Chiralities_Consistent>
1

> <s_lp_Variant>
CHEMBL3192_lig1054-2

> <s_i_glide_gridfile>
glide-grid_3f07

> <i_i_glide_lignum>
1148

> <i_i_glide_rotatable_bonds>
6

> <r_i_docking_score>
-7.10676029866461

> <r_i_glide_ligand_efficiency>
-0.25381286780945

> <r_i_glide_ligand_efficiency_sa>
-0.77072535445424

> <r_i_glide_ligand_efficiency_ln>
-1.64044894048116

> <r_i_glide_gscore>
-7.10676029866461

> <r_i_glide_lipo>
-1.04032188438066

> <r_i_glide_hbond>
-0.601066162531049

> <r_i_glide_metal>
-1.85850340314137

> <r_i_glide_rewards>
-0.937422571221111

> <r_i_glide_evdw>
-20.7087154388428

> <r_i_glide_ecoul>
-13.5210199356079

> <r_i_glide_erotb>
0.624124259315423

> <r_i_glide_esite>
-0.229981774422521

> <r_i_glide_emodel>
-48.0441974626415

> <r_i_glide_energy>
-34.2297353744507

> <r_i_glide_einternal>
3.01681470870972

> <i_i_glide_confnum>
5

> <i_i_glide_posenum>
350

> <r_i_glide_eff_state_penalty>
0

> <s_user_duplicate_titles>
CHEMBL3192_lig1054

> <s_m_subgroup_title>
dock_pv

> <s_m_subgroupid>
dock_pv

> <b_m_subgroup_collapsed>
1

$$$$
CHEMBL3192_lig625
                    3D
 Schrodinger Suite 2021-1.
 56 57  0  0  1  0            999 V2000
  -29.8287   26.4190  -38.5863 C   0  0  0  0  0  0
  -28.4838   27.1509  -38.5906 C   0  0  0  0  0  0
  -28.4834   28.5790  -39.1670 C   0  0  0  0  0  0
  -27.0574   29.1621  -39.1215 C   0  0  0  0  0  0
  -26.9222   30.5564  -39.7515 C   0  0  0  0  0  0
  -25.4582   31.0471  -39.7458 C   0  0  0  0  0  0
  -25.2173   32.3860  -40.4728 C   0  0  0  0  0  0
  -30.5689   26.4781  -39.5809 O   0  0  0  0  0  0
  -30.1273   25.6821  -37.5032 N   0  0  0  0  0  0
  -31.2717   24.8689  -37.5364 O   0  0  0  0  0  0
  -25.6902   32.4256  -41.8571 N   0  0  0  0  0  0
  -25.2019   31.7021  -42.8826 C   0  0  0  0  0  0
  -27.4489   32.6658  -48.0995 N   0  0  0  0  0  0
  -28.4430   33.5417  -48.4208 C   0  0  0  0  0  0
  -28.8954   33.7350  -49.5517 O   0  0  0  0  0  0
  -29.0126   34.2817  -47.1882 C   0  0  0  0  0  0
  -27.9651   34.6192  -46.0804 C   0  0  0  0  0  0
  -27.1584   33.3431  -45.7664 C   0  0  0  0  0  0
  -26.5825   33.1021  -44.5105 C   0  0  0  0  0  0
  -25.8377   31.9442  -44.2353 C   0  0  0  0  0  0
  -25.6660   31.0128  -45.2611 C   0  0  0  0  0  0
  -26.2101   31.2401  -46.5193 C   0  0  0  0  0  0
  -26.9563   32.3972  -46.7934 C   0  0  0  0  0  0
  -26.8992   31.8666  -49.2148 C   0  0  0  0  0  0
  -24.3034   30.8700  -42.7496 O   0  0  0  0  0  0
  -28.7792   35.0923  -44.8463 C   0  0  0  0  0  0
  -26.9890   35.7108  -46.5831 C   0  0  0  0  0  0
  -28.0818   27.1928  -37.5814 H   0  0  0  0  0  0
  -27.7997   26.5345  -39.1746 H   0  0  0  0  0  0
  -28.8447   28.5770  -40.1956 H   0  0  0  0  0  0
  -29.1534   29.2214  -38.5914 H   0  0  0  0  0  0
  -26.7082   29.1993  -38.0873 H   0  0  0  0  0  0
  -26.3824   28.4808  -39.6407 H   0  0  0  0  0  0
  -27.2961   30.5191  -40.7749 H   0  0  0  0  0  0
  -27.5527   31.2671  -39.2155 H   0  0  0  0  0  0
  -25.1143   31.1465  -38.7155 H   0  0  0  0  0  0
  -24.8157   30.2836  -40.1891 H   0  0  0  0  0  0
  -25.7709   33.1705  -39.9570 H   0  0  0  0  0  0
  -24.1630   32.6668  -40.4251 H   0  0  0  0  0  0
  -29.5661   25.5513  -36.6722 H   0  0  0  0  0  0
  -30.9163   23.9714  -37.5814 H   0  0  0  0  0  0
  -26.4414   33.0687  -42.0523 H   0  0  0  0  0  0
  -29.5200   35.1802  -47.5381 H   0  0  0  0  0  0
  -29.7904   33.6327  -46.7815 H   0  0  0  0  0  0
  -26.6957   33.8520  -43.7426 H   0  0  0  0  0  0
  -25.0946   30.1089  -45.0964 H   0  0  0  0  0  0
  -26.0418   30.4861  -47.2743 H   0  0  0  0  0  0
  -27.1218   32.2732  -50.2050 H   0  0  0  0  0  0
  -25.8116   31.8106  -49.1450 H   0  0  0  0  0  0
  -27.3019   30.8528  -49.1822 H   0  0  0  0  0  0
  -29.4689   35.8907  -45.1136 H   0  0  0  0  0  0
  -29.3677   34.2825  -44.4149 H   0  0  0  0  0  0
  -28.1368   35.4941  -44.0633 H   0  0  0  0  0  0
  -27.5220   36.6191  -46.8657 H   0  0  0  0  0  0
  -26.2728   35.9851  -45.8077 H   0  0  0  0  0  0
  -26.4147   35.3867  -47.4518 H   0  0  0  0  0  0
  1  2  1  0  0  0
  1  8  2  0  0  0
  1  9  1  0  0  0
  2  3  1  0  0  0
  2 28  1  0  0  0
  2 29  1  0  0  0
  3  4  1  0  0  0
  3 30  1  0  0  0
  3 31  1  0  0  0
  4  5  1  0  0  0
  4 32  1  0  0  0
  4 33  1  0  0  0
  5  6  1  0  0  0
  5 34  1  0  0  0
  5 35  1  0  0  0
  6  7  1  0  0  0
  6 36  1  0  0  0
  6 37  1  0  0  0
  7 11  1  0  0  0
  7 38  1  0  0  0
  7 39  1  0  0  0
  9 10  1  0  0  0
  9 40  1  0  0  0
 10 41  1  0  0  0
 11 12  1  0  0  0
 11 42  1  0  0  0
 12 20  1  0  0  0
 12 25  2  0  0  0
 13 14  1  0  0  0
 13 23  1  0  0  0
 13 24  1  0  0  0
 14 15  2  0  0  0
 14 16  1  0  0  0
 16 17  1  0  0  0
 16 43  1  0  0  0
 16 44  1  0  0  0
 17 18  1  0  0  0
 17 26  1  0  0  0
 17 27  1  0  0  0
 18 19  1  0  0  0
 18 23  2  0  0  0
 19 20  2  0  0  0
 19 45  1  0  0  0
 20 21  1  0  0  0
 21 22  2  0  0  0
 21 46  1  0  0  0
 22 23  1  0  0  0
 22 47  1  0  0  0
 24 48  1  0  0  0
 24 49  1  0  0  0
 24 50  1  0  0  0
 26 51  1  0  0  0
 26 52  1  0  0  0
 26 53  1  0  0  0
 27 54  1  0  0  0
 27 55  1  0  0  0
 27 56  1  0  0  0
M  END
> <s_m_entry_id>
53107

> <s_m_entry_name>
dock_pv.326

> <s_m_Source_Path>
/home/csk/Desktop/cluster/DUD-E-result/hdac8

> <s_m_Source_File>
dock_pv.maegz

> <i_m_Source_File_Index>
326

> <chembl_id>
CHEMBL3309286

> <chembl_pref_name>
None

> <i_lp_mmshare_version>
53161

> <i_f3d_flags>
0

> <r_lp_tautomer_probability>
1

> <s_lp_Force_Field>
OPLS_2005

> <r_lp_Energy>
31.849574

> <b_lp_Chiralities_Consistent>
1

> <s_lp_Variant>
CHEMBL3192_lig625-1

> <s_i_glide_gridfile>
glide-grid_3f07

> <i_i_glide_lignum>
651

> <i_i_glide_rotatable_bonds>
11

> <r_i_docking_score>
-7.10233466330236

> <r_i_glide_ligand_efficiency>
-0.263049431974161

> <r_i_glide_ligand_efficiency_sa>
-0.789148295055517

> <r_i_glide_ligand_efficiency_ln>
-1.6533064184787

> <r_i_glide_gscore>
-7.10233466330236

> <r_i_glide_lipo>
-1.05228023293405

> <r_i_glide_hbond>
-0.32

> <r_i_glide_metal>
-2.3

> <r_i_glide_rewards>
-0.923851065633807

> <r_i_glide_evdw>
-28.7450790405273

> <r_i_glide_ecoul>
-15.3840465545654

> <r_i_glide_erotb>
1.37241155235421

> <r_i_glide_esite>
-0.133753981877534

> <r_i_glide_emodel>
-66.7418218243154

> <r_i_glide_energy>
-44.1291255950928

> <r_i_glide_einternal>
3.11433005332947

> <i_i_glide_confnum>
110

> <i_i_glide_posenum>
387

> <r_i_glide_eff_state_penalty>
0

> <s_user_duplicate_titles>
CHEMBL3192_lig625

> <s_m_subgroup_title>
dock_pv

> <s_m_subgroupid>
dock_pv

> <b_m_subgroup_collapsed>
1

$$$$
CHEMBL3192_lig150
                    3D
 Schrodinger Suite 2021-1.
 39 40  0  0  1  0            999 V2000
  -25.2707   31.1272  -45.1452 C   0  0  0  0  0  0
  -24.8149   30.0608  -44.4398 O   0  0  0  0  0  0
  -25.4177   30.0691  -43.1806 N   0  0  0  0  0  0
  -26.2064   31.1279  -43.1375 C   0  0  0  0  0  0
  -26.1563   31.8211  -44.3520 C   0  0  0  0  0  0
  -24.7689   31.3095  -46.5293 C   0  0  0  0  0  0
  -23.4131   31.1265  -46.8147 C   0  0  0  0  0  0
  -22.9499   31.2748  -48.1192 C   0  0  0  0  0  0
  -23.8437   31.6166  -49.1327 C   0  0  0  0  0  0
  -25.1947   31.8168  -48.8520 C   0  0  0  0  0  0
  -25.6576   31.6679  -47.5469 C   0  0  0  0  0  0
  -26.9556   31.5640  -41.9822 C   0  0  0  0  0  0
  -27.3497   30.5830  -41.1504 N   0  0  0  0  0  0
  -28.1680   30.8219  -39.9674 C   0  0  0  0  0  0
  -29.0184   29.6114  -39.5523 C   0  0  0  0  0  0
  -28.1938   28.3834  -39.1183 C   0  0  0  0  0  0
  -28.8565   27.5189  -38.0231 C   0  0  0  0  0  0
  -29.8675   26.4540  -38.4492 C   0  0  0  0  0  0
  -30.1856   25.5341  -37.5240 N   0  0  0  0  0  0
  -30.3659   26.4690  -39.5784 O   0  0  0  0  0  0
  -31.0130   24.4698  -37.9029 O   0  0  0  0  0  0
  -27.2529   32.7508  -41.8203 O   0  0  0  0  0  0
  -26.6844   32.7282  -44.6079 H   0  0  0  0  0  0
  -22.7169   30.8685  -46.0285 H   0  0  0  0  0  0
  -21.9032   31.1283  -48.3414 H   0  0  0  0  0  0
  -23.4842   31.7368  -50.1441 H   0  0  0  0  0  0
  -25.8803   32.0878  -49.6413 H   0  0  0  0  0  0
  -26.7066   31.8153  -47.3327 H   0  0  0  0  0  0
  -26.9325   29.6692  -41.2449 H   0  0  0  0  0  0
  -28.8214   31.6869  -40.0916 H   0  0  0  0  0  0
  -27.4722   31.0744  -39.1656 H   0  0  0  0  0  0
  -29.7147   29.3421  -40.3485 H   0  0  0  0  0  0
  -29.6384   29.9480  -38.7207 H   0  0  0  0  0  0
  -27.2464   28.7360  -38.7050 H   0  0  0  0  0  0
  -27.9124   27.7778  -39.9814 H   0  0  0  0  0  0
  -29.3145   28.1422  -37.2527 H   0  0  0  0  0  0
  -28.0387   26.9645  -37.5810 H   0  0  0  0  0  0
  -29.8135   25.4396  -36.5883 H   0  0  0  0  0  0
  -30.4131   23.7079  -37.9426 H   0  0  0  0  0  0
  1  6  1  0  0  0
  1  2  1  0  0  0
  1  5  2  0  0  0
  2  3  1  0  0  0
  3  4  2  0  0  0
  4 12  1  0  0  0
  4  5  1  0  0  0
  5 23  1  0  0  0
  6 11  1  0  0  0
  6  7  2  0  0  0
  7  8  1  0  0  0
  7 24  1  0  0  0
  8  9  2  0  0  0
  8 25  1  0  0  0
  9 10  1  0  0  0
  9 26  1  0  0  0
 10 11  2  0  0  0
 10 27  1  0  0  0
 11 28  1  0  0  0
 12 13  1  0  0  0
 12 22  2  0  0  0
 13 14  1  0  0  0
 13 29  1  0  0  0
 14 15  1  0  0  0
 14 30  1  0  0  0
 14 31  1  0  0  0
 15 16  1  0  0  0
 15 32  1  0  0  0
 15 33  1  0  0  0
 16 17  1  0  0  0
 16 34  1  0  0  0
 16 35  1  0  0  0
 17 18  1  0  0  0
 17 36  1  0  0  0
 17 37  1  0  0  0
 18 19  1  0  0  0
 18 20  2  0  0  0
 19 21  1  0  0  0
 19 38  1  0  0  0
 21 39  1  0  0  0
M  END
> <s_m_entry_id>
53108

> <s_m_entry_name>
dock_pv.327

> <s_m_Source_Path>
/home/csk/Desktop/cluster/DUD-E-result/hdac8

> <s_m_Source_File>
dock_pv.maegz

> <i_m_Source_File_Index>
327

> <chembl_id>
CHEMBL467998

> <chembl_pref_name>
None

> <i_lp_mmshare_version>
53161

> <i_f3d_flags>
0

> <r_lp_tautomer_probability>
1

> <s_lp_Force_Field>
OPLS_2005

> <r_lp_Energy>
16.484635

> <b_lp_Chiralities_Consistent>
1

> <s_lp_Variant>
CHEMBL3192_lig150-1

> <s_i_glide_gridfile>
glide-grid_3f07

> <i_i_glide_lignum>
160

> <i_i_glide_rotatable_bonds>
10

> <r_i_docking_score>
-7.09795630478389

> <r_i_glide_ligand_efficiency>
-0.322634377490177

> <r_i_glide_ligand_efficiency_sa>
-0.904034214217523

> <r_i_glide_ligand_efficiency_ln>
-1.73499942513606

> <r_i_glide_gscore>
-7.09795630478389

> <r_i_glide_lipo>
-0.891355537109291

> <r_i_glide_hbond>
-0.304

> <r_i_glide_metal>
-2.3

> <r_i_glide_rewards>
-1.44012976426854

> <r_i_glide_evdw>
-23.3703632354736

> <r_i_glide_ecoul>
-17.7366676330566

> <r_i_glide_erotb>
1.80249843702551

> <r_i_glide_esite>
-0.135951133699389

> <r_i_glide_emodel>
-58.6601610363811

> <r_i_glide_energy>
-41.1070308685303

> <r_i_glide_einternal>
10.0229969024658

> <i_i_glide_confnum>
105

> <i_i_glide_posenum>
399

> <r_i_glide_eff_state_penalty>
0

> <s_user_duplicate_titles>
CHEMBL3192_lig150

> <s_m_subgroup_title>
dock_pv

> <s_m_subgroupid>
dock_pv

> <b_m_subgroup_collapsed>
1

$$$$
CHEMBL3192_lig942
                    3D
 Schrodinger Suite 2021-1.
 52 54  0  0  1  0            999 V2000
  -27.9248   34.4608  -44.3950 C   0  0  0  0  0  0
  -28.8503   34.5716  -45.4269 C   0  0  0  0  0  0
  -28.6870   33.8435  -46.6023 C   0  0  0  0  0  0
  -26.8317   33.6029  -44.5087 C   0  0  0  0  0  0
  -26.6429   32.8195  -45.6855 C   0  0  0  0  0  0
  -27.5825   32.9731  -46.7552 C   0  0  0  0  0  0
  -27.4434   32.3128  -47.9349 N   0  0  0  0  0  0
  -26.3691   31.5038  -48.0543 C   0  0  0  0  0  0
  -25.4212   31.2695  -47.1219 N   0  0  0  0  0  0
  -25.5607   31.8995  -45.9249 C   0  0  0  0  0  0
  -24.5930   31.5783  -44.9358 N   0  0  0  0  0  0
  -24.8464   31.2943  -43.5695 C   0  0  0  0  0  0
  -23.1872   31.5013  -45.3689 C   0  0  0  0  0  0
  -26.0905   30.7702  -43.1868 C   0  0  0  0  0  0
  -26.3989   30.5224  -41.8507 C   0  0  0  0  0  0
  -25.4302   30.7609  -40.8694 C   0  0  0  0  0  0
  -24.1822   31.2687  -41.2266 C   0  0  0  0  0  0
  -23.8919   31.5275  -42.5658 C   0  0  0  0  0  0
  -27.6431   30.0134  -41.5653 O   0  0  0  0  0  0
  -28.3814   30.6193  -40.5049 C   0  0  0  0  0  0
  -29.1800   29.5485  -39.7508 C   0  0  0  0  0  0
  -28.2889   28.4325  -39.1697 C   0  0  0  0  0  0
  -28.9272   27.5751  -38.0511 C   0  0  0  0  0  0
  -29.9026   26.4689  -38.4618 C   0  0  0  0  0  0
  -30.1779   25.5354  -37.5370 N   0  0  0  0  0  0
  -30.4307   26.4785  -39.5761 O   0  0  0  0  0  0
  -31.0131   24.4692  -37.9004 O   0  0  0  0  0  0
  -26.2227   30.7847  -49.3784 C   0  0  0  0  0  0
  -28.0540   35.0476  -43.4974 H   0  0  0  0  0  0
  -29.6933   35.2397  -45.3251 H   0  0  0  0  0  0
  -29.4028   33.9449  -47.4081 H   0  0  0  0  0  0
  -26.1206   33.5538  -43.6992 H   0  0  0  0  0  0
  -23.0590   31.5445  -46.4509 H   0  0  0  0  0  0
  -22.6227   32.3473  -44.9725 H   0  0  0  0  0  0
  -22.7154   30.5790  -45.0264 H   0  0  0  0  0  0
  -26.8449   30.5632  -43.9327 H   0  0  0  0  0  0
  -25.6315   30.5487  -39.8284 H   0  0  0  0  0  0
  -23.4404   31.4590  -40.4651 H   0  0  0  0  0  0
  -22.9208   31.9352  -42.8053 H   0  0  0  0  0  0
  -29.0661   31.3463  -40.9412 H   0  0  0  0  0  0
  -27.7672   31.1779  -39.7960 H   0  0  0  0  0  0
  -29.9250   29.1142  -40.4181 H   0  0  0  0  0  0
  -29.7284   30.0541  -38.9537 H   0  0  0  0  0  0
  -27.4009   28.9007  -38.7415 H   0  0  0  0  0  0
  -27.9106   27.7946  -39.9715 H   0  0  0  0  0  0
  -29.4112   28.2066  -37.3009 H   0  0  0  0  0  0
  -28.0911   27.0693  -37.5810 H   0  0  0  0  0  0
  -29.7941   25.4471  -36.6067 H   0  0  0  0  0  0
  -30.4115   23.7141  -37.9784 H   0  0  0  0  0  0
  -27.1893   30.4184  -49.7248 H   0  0  0  0  0  0
  -25.8273   31.4632  -50.1328 H   0  0  0  0  0  0
  -25.5539   29.9297  -49.2949 H   0  0  0  0  0  0
  1  2  2  0  0  0
  1  4  1  0  0  0
  1 29  1  0  0  0
  2  3  1  0  0  0
  2 30  1  0  0  0
  3  6  2  0  0  0
  3 31  1  0  0  0
  4  5  2  0  0  0
  4 32  1  0  0  0
  5  6  1  0  0  0
  5 10  1  0  0  0
  6  7  1  0  0  0
  7  8  2  0  0  0
  8  9  1  0  0  0
  8 28  1  0  0  0
  9 10  2  0  0  0
 10 11  1  0  0  0
 11 12  1  0  0  0
 11 13  1  0  0  0
 12 14  2  0  0  0
 12 18  1  0  0  0
 13 33  1  0  0  0
 13 34  1  0  0  0
 13 35  1  0  0  0
 14 15  1  0  0  0
 14 36  1  0  0  0
 15 16  2  0  0  0
 15 19  1  0  0  0
 16 17  1  0  0  0
 16 37  1  0  0  0
 17 18  2  0  0  0
 17 38  1  0  0  0
 18 39  1  0  0  0
 19 20  1  0  0  0
 20 21  1  0  0  0
 20 40  1  0  0  0
 20 41  1  0  0  0
 21 22  1  0  0  0
 21 42  1  0  0  0
 21 43  1  0  0  0
 22 23  1  0  0  0
 22 44  1  0  0  0
 22 45  1  0  0  0
 23 24  1  0  0  0
 23 46  1  0  0  0
 23 47  1  0  0  0
 24 25  1  0  0  0
 24 26  2  0  0  0
 25 27  1  0  0  0
 25 48  1  0  0  0
 27 49  1  0  0  0
 28 50  1  0  0  0
 28 51  1  0  0  0
 28 52  1  0  0  0
M  END
> <s_m_entry_id>
53109

> <s_m_entry_name>
dock_pv.328

> <s_m_Source_Path>
/home/csk/Desktop/cluster/DUD-E-result/hdac8

> <s_m_Source_File>
dock_pv.maegz

> <i_m_Source_File_Index>
328

> <chembl_id>
CHEMBL3774994

> <chembl_pref_name>
None

> <i_lp_mmshare_version>
53161

> <i_f3d_flags>
0

> <r_lp_tautomer_probability>
1

> <s_lp_Force_Field>
OPLS_2005

> <r_lp_Energy>
28.797077

> <b_lp_Chiralities_Consistent>
1

> <s_lp_Variant>
CHEMBL3192_lig942-1

> <s_i_glide_gridfile>
glide-grid_3f07

> <i_i_glide_lignum>
1003

> <i_i_glide_rotatable_bonds>
10

> <r_i_docking_score>
-7.09054534028561

> <r_i_glide_ligand_efficiency>
-0.253233762153058

> <r_i_glide_ligand_efficiency_sa>
-0.768966848606441

> <r_i_glide_ligand_efficiency_ln>
-1.63670605199542

> <r_i_glide_gscore>
-7.09054534028561

> <r_i_glide_lipo>
-1.15762212502197

> <r_i_glide_hbond>
-0.304

> <r_i_glide_metal>
-2.3

> <r_i_glide_rewards>
-0.213611627939952

> <r_i_glide_evdw>
-30.5165481567383

> <r_i_glide_ecoul>
-17.7112579345703

> <r_i_glide_erotb>
1.20637611678286

> <r_i_glide_esite>
-0.139171606084087

> <r_i_glide_emodel>
-67.625873074304

> <r_i_glide_energy>
-48.2278060913086

> <r_i_glide_einternal>
8.18642330169678

> <i_i_glide_confnum>
87

> <i_i_glide_posenum>
339

> <r_i_glide_eff_state_penalty>
0

> <s_user_duplicate_titles>
CHEMBL3192_lig942

> <s_m_subgroup_title>
dock_pv

> <s_m_subgroupid>
dock_pv

> <b_m_subgroup_collapsed>
1

$$$$
CHEMBL3192_lig569
                    3D
 Schrodinger Suite 2021-1.
 42 42  0  0  1  0            999 V2000
  -24.3277   31.5297  -46.4160 C   0  0  0  0  0  0
  -23.1865   31.2695  -45.6574 C   0  0  0  0  0  0
  -23.2832   31.1277  -44.2742 C   0  0  0  0  0  0
  -24.5255   31.2226  -43.6422 C   0  0  0  0  0  0
  -25.6710   31.4859  -44.4104 C   0  0  0  0  0  0
  -25.5796   31.6496  -45.7982 C   0  0  0  0  0  0
  -24.5514   31.1028  -42.2430 N   0  0  0  0  0  0
  -25.5395   30.5880  -41.4832 C   0  0  0  0  0  0
  -25.2869   30.6120  -39.9638 C   0  0  0  0  0  0
  -26.5593   30.0736  -41.9454 O   0  0  0  0  0  0
  -26.5183   30.8690  -39.0553 C   0  0  0  0  0  0
  -27.7089   29.8867  -39.1614 C   0  0  0  0  0  0
  -27.3151   28.4034  -39.0567 C   0  0  0  0  0  0
  -28.4929   27.4336  -39.2200 C   0  0  0  0  0  0
  -29.3073   27.1737  -37.9456 C   0  0  0  0  0  0
  -30.3633   26.0793  -38.1269 C   0  0  0  0  0  0
  -30.5153   25.2177  -37.1092 N   0  0  0  0  0  0
  -31.0130   26.0690  -39.1810 O   0  0  0  0  0  0
  -31.4130   24.1539  -37.2581 O   0  0  0  0  0  0
  -26.8330   31.9793  -46.6094 C   0  0  0  0  0  0
  -26.5339   32.4748  -47.8118 F   0  0  0  0  0  0
  -27.5890   32.8725  -45.9688 F   0  0  0  0  0  0
  -27.5453   30.8690  -46.7810 F   0  0  0  0  0  0
  -24.2298   31.6504  -47.4853 H   0  0  0  0  0  0
  -22.2214   31.1899  -46.1381 H   0  0  0  0  0  0
  -22.3853   30.9415  -43.7019 H   0  0  0  0  0  0
  -26.6344   31.5909  -43.9322 H   0  0  0  0  0  0
  -23.7059   31.3747  -41.7645 H   0  0  0  0  0  0
  -24.8168   29.6691  -39.6865 H   0  0  0  0  0  0
  -24.5420   31.3774  -39.7363 H   0  0  0  0  0  0
  -26.1743   30.8774  -38.0194 H   0  0  0  0  0  0
  -26.8741   31.8828  -39.2396 H   0  0  0  0  0  0
  -28.4303   30.1152  -38.3810 H   0  0  0  0  0  0
  -28.2447   30.0593  -40.0950 H   0  0  0  0  0  0
  -26.6130   28.1795  -39.8573 H   0  0  0  0  0  0
  -26.7851   28.2111  -38.1230 H   0  0  0  0  0  0
  -29.1587   27.8180  -39.9868 H   0  0  0  0  0  0
  -28.0910   26.4844  -39.5810 H   0  0  0  0  0  0
  -28.6130   26.8690  -37.1810 H   0  0  0  0  0  0
  -29.7858   28.0823  -37.5810 H   0  0  0  0  0  0
  -29.9907   25.1807  -36.2451 H   0  0  0  0  0  0
  -30.8413   23.3966  -37.4425 H   0  0  0  0  0  0
  1  2  1  0  0  0
  1  6  2  0  0  0
  1 24  1  0  0  0
  2  3  2  0  0  0
  2 25  1  0  0  0
  3  4  1  0  0  0
  3 26  1  0  0  0
  4  5  2  0  0  0
  4  7  1  0  0  0
  5  6  1  0  0  0
  5 27  1  0  0  0
  6 20  1  0  0  0
  7  8  1  0  0  0
  7 28  1  0  0  0
  8  9  1  0  0  0
  8 10  2  0  0  0
  9 11  1  0  0  0
  9 29  1  0  0  0
  9 30  1  0  0  0
 11 12  1  0  0  0
 11 31  1  0  0  0
 11 32  1  0  0  0
 12 13  1  0  0  0
 12 33  1  0  0  0
 12 34  1  0  0  0
 13 14  1  0  0  0
 13 35  1  0  0  0
 13 36  1  0  0  0
 14 15  1  0  0  0
 14 37  1  0  0  0
 14 38  1  0  0  0
 15 16  1  0  0  0
 15 39  1  0  0  0
 15 40  1  0  0  0
 16 17  1  0  0  0
 16 18  2  0  0  0
 17 19  1  0  0  0
 17 41  1  0  0  0
 19 42  1  0  0  0
 20 21  1  0  0  0
 20 22  1  0  0  0
 20 23  1  0  0  0
M  END
> <s_m_entry_id>
53110

> <s_m_entry_name>
dock_pv.329

> <s_m_Source_Path>
/home/csk/Desktop/cluster/DUD-E-result/hdac8

> <s_m_Source_File>
dock_pv.maegz

> <i_m_Source_File_Index>
329

> <chembl_id>
CHEMBL1089495

> <chembl_pref_name>
None

> <i_lp_mmshare_version>
53161

> <i_f3d_flags>
0

> <r_lp_tautomer_probability>
1

> <s_lp_Force_Field>
OPLS_2005

> <r_lp_Energy>
19.268081

> <b_lp_Chiralities_Consistent>
1

> <s_lp_Variant>
CHEMBL3192_lig569-1

> <s_i_glide_gridfile>
glide-grid_3f07

> <i_i_glide_lignum>
590

> <i_i_glide_rotatable_bonds>
12

> <r_i_docking_score>
-7.08800207217726

> <r_i_glide_ligand_efficiency>
-0.308174003138142

> <r_i_glide_ligand_efficiency_sa>
-0.876405870657245

> <r_i_glide_ligand_efficiency_ln>
-1.71394317150187

> <r_i_glide_gscore>
-7.08800207217726

> <r_i_glide_lipo>
-1.19143143606805

> <r_i_glide_hbond>
-0.229486052891603

> <r_i_glide_metal>
-2.3

> <r_i_glide_rewards>
-1.0873288860507

> <r_i_glide_evdw>
-30.8267097473145

> <r_i_glide_ecoul>
-15.5990142822266

> <r_i_glide_erotb>
1.70533030575748

> <r_i_glide_esite>
-0.10389837322468

> <r_i_glide_emodel>
-67.4658680263494

> <r_i_glide_energy>
-46.425724029541

> <r_i_glide_einternal>
7.02485656738281

> <i_i_glide_confnum>
244

> <i_i_glide_posenum>
385

> <r_i_glide_eff_state_penalty>
0

> <s_user_duplicate_titles>
CHEMBL3192_lig569

> <s_m_subgroup_title>
dock_pv

> <s_m_subgroupid>
dock_pv

> <b_m_subgroup_collapsed>
1

$$$$
CHEMBL3192_lig437
                    3D
 Schrodinger Suite 2021-1.
 24 24  0  0  1  0            999 V2000
  -27.0178   30.9893  -40.1082 C   0  0  0  0  0  0
  -28.1758   30.2498  -40.1102 N   0  0  0  0  0  0
  -27.9719   29.1070  -39.3599 C   0  0  0  0  0  0
  -26.6833   29.1995  -38.8418 C   0  0  0  0  0  0
  -26.0557   30.3438  -39.3511 C   0  0  0  0  0  0
  -24.7139   30.7836  -39.1002 C   0  0  0  0  0  0
  -24.0633   30.4595  -38.1083 O   0  0  0  0  0  0
  -29.4053   30.6399  -40.7731 C   0  0  0  0  0  0
  -29.0075   28.0899  -39.2368 C   0  0  0  0  0  0
  -29.0731   27.1053  -38.3177 C   0  0  0  0  0  0
  -30.1674   26.1613  -38.2636 C   0  0  0  0  0  0
  -30.2130   25.4275  -37.1407 N   0  0  0  0  0  0
  -30.9924   26.0690  -39.1810 O   0  0  0  0  0  0
  -31.2303   24.4690  -37.0143 O   0  0  0  0  0  0
  -24.0108   31.8659  -40.3810 Cl  0  0  0  0  0  0
  -26.9658   31.9228  -40.6503 H   0  0  0  0  0  0
  -26.2185   28.4698  -38.1955 H   0  0  0  0  0  0
  -29.2976   31.6421  -41.1810 H   0  0  0  0  0  0
  -29.6150   29.9407  -41.5810 H   0  0  0  0  0  0
  -30.2193   30.6355  -40.0497 H   0  0  0  0  0  0
  -29.7857   28.1760  -39.9810 H   0  0  0  0  0  0
  -28.2944   27.0126  -37.5810 H   0  0  0  0  0  0
  -29.5728   25.4415  -36.3580 H   0  0  0  0  0  0
  -30.7780   23.6330  -37.1810 H   0  0  0  0  0  0
  1  5  2  0  0  0
  1  2  1  0  0  0
  1 16  1  0  0  0
  2  3  1  0  0  0
  2  8  1  0  0  0
  3  4  2  0  0  0
  3  9  1  0  0  0
  4  5  1  0  0  0
  4 17  1  0  0  0
  5  6  1  0  0  0
  6  7  2  0  0  0
  6 15  1  0  0  0
  8 18  1  0  0  0
  8 19  1  0  0  0
  8 20  1  0  0  0
  9 10  2  0  0  0
  9 21  1  0  0  0
 10 11  1  0  0  0
 10 22  1  0  0  0
 11 12  1  0  0  0
 11 13  2  0  0  0
 12 14  1  0  0  0
 12 23  1  0  0  0
 14 24  1  0  0  0
M  END
> <s_m_entry_id>
53111

> <s_m_entry_name>
dock_pv.330

> <s_m_Source_Path>
/home/csk/Desktop/cluster/DUD-E-result/hdac8

> <s_m_Source_File>
dock_pv.maegz

> <i_m_Source_File_Index>
330

> <chembl_id>
CHEMBL541000

> <chembl_pref_name>
None

> <i_lp_mmshare_version>
53161

> <i_f3d_flags>
0

> <r_lp_tautomer_probability>
1

> <s_lp_Force_Field>
OPLS_2005

> <r_lp_Energy>
9.708944

> <b_lp_Chiralities_Consistent>
1

> <s_lp_Variant>
CHEMBL3192_lig437-1

> <s_i_glide_gridfile>
glide-grid_3f07

> <i_i_glide_lignum>
456

> <i_i_glide_rotatable_bonds>
5

> <r_i_docking_score>
-7.0852981298387

> <r_i_glide_ligand_efficiency>
-0.472353208655913

> <r_i_glide_ligand_efficiency_sa>
-1.1649231854844

> <r_i_glide_ligand_efficiency_ln>
-1.91078808149162

> <r_i_glide_gscore>
-7.0852981298387

> <r_i_glide_lipo>
-0.697920031365734

> <r_i_glide_hbond>
-0.238870199038099

> <r_i_glide_metal>
-2.3

> <r_i_glide_rewards>
-1.85022747375624

> <r_i_glide_evdw>
-29.1188945770264

> <r_i_glide_ecoul>
-9.47042751312256

> <r_i_glide_erotb>
0.978228430141081

> <r_i_glide_esite>
-0.1

> <r_i_glide_emodel>
-57.4273438781175

> <r_i_glide_energy>
-38.5893220901489

> <r_i_glide_einternal>
1.7294579744339

> <i_i_glide_confnum>
1

> <i_i_glide_posenum>
203

> <r_i_glide_eff_state_penalty>
0

> <s_user_duplicate_titles>
CHEMBL3192_lig437

> <s_m_subgroup_title>
dock_pv

> <s_m_subgroupid>
dock_pv

> <b_m_subgroup_collapsed>
1

$$$$
CHEMBL3192_lig970
                    3D
 Schrodinger Suite 2021-1.
 39 40  0  0  1  0            999 V2000
  -27.3600   30.9510  -39.9989 C   0  0  0  0  0  0
  -26.7071   30.0451  -39.1397 C   0  0  0  0  0  0
  -27.3464   28.8501  -38.7569 C   0  0  0  0  0  0
  -28.6130   28.5106  -39.2655 C   0  0  0  0  0  0
  -29.2050   29.3902  -40.1797 C   0  0  0  0  0  0
  -28.6058   30.5941  -40.5216 C   0  0  0  0  0  0
  -29.3814   27.2690  -38.8420 C   0  0  0  0  0  0
  -30.2130   26.7476  -39.5810 O   0  0  0  0  0  0
  -29.2706   26.8690  -37.5810 N   0  0  0  0  0  0
  -30.1916   25.9213  -37.0840 O   0  0  0  0  0  0
  -25.4291   30.3198  -38.6086 N   0  0  0  0  0  0
  -24.3300   30.6943  -39.3097 C   0  0  0  0  0  0
  -24.3361   30.8690  -40.5319 O   0  0  0  0  0  0
  -23.0302   30.8326  -38.5361 C   0  0  0  0  0  0
  -22.9262   30.4689  -37.1835 C   0  0  0  0  0  0
  -21.7038   30.5156  -36.5190 C   0  0  0  0  0  0
  -20.5520   30.9416  -37.1936 C   0  0  0  0  0  0
  -20.6499   31.3191  -38.5306 C   0  0  0  0  0  0
  -21.8723   31.2690  -39.1958 C   0  0  0  0  0  0
  -26.7717   32.1766  -40.2555 O   0  0  0  0  0  0
  -27.2177   32.9649  -41.3512 C   0  0  0  0  0  0
  -19.2963   31.0131  -36.6223 O   0  0  0  0  0  0
  -19.1286   30.6340  -35.2601 C   0  0  0  0  0  0
  -26.8502   28.1810  -38.0675 H   0  0  0  0  0  0
  -30.1752   29.1789  -40.6045 H   0  0  0  0  0  0
  -29.1404   31.2547  -41.1810 H   0  0  0  0  0  0
  -28.6801   27.2692  -36.8533 H   0  0  0  0  0  0
  -30.7428   26.4281  -36.4795 H   0  0  0  0  0  0
  -25.2921   30.1127  -37.6350 H   0  0  0  0  0  0
  -23.7816   30.1215  -36.6322 H   0  0  0  0  0  0
  -21.6670   30.2179  -35.4832 H   0  0  0  0  0  0
  -19.7678   31.6543  -39.0562 H   0  0  0  0  0  0
  -21.9065   31.5616  -40.2358 H   0  0  0  0  0  0
  -26.5406   33.8093  -41.4782 H   0  0  0  0  0  0
  -27.2148   32.3965  -42.2826 H   0  0  0  0  0  0
  -28.2146   33.3682  -41.1763 H   0  0  0  0  0  0
  -18.0819   30.7503  -34.9797 H   0  0  0  0  0  0
  -19.3977   29.5893  -35.0984 H   0  0  0  0  0  0
  -19.7189   31.2633  -34.5926 H   0  0  0  0  0  0
  1  2  2  0  0  0
  1  6  1  0  0  0
  1 20  1  0  0  0
  2  3  1  0  0  0
  2 11  1  0  0  0
  3  4  2  0  0  0
  3 24  1  0  0  0
  4  5  1  0  0  0
  4  7  1  0  0  0
  5  6  2  0  0  0
  5 25  1  0  0  0
  6 26  1  0  0  0
  7  8  2  0  0  0
  7  9  1  0  0  0
  9 10  1  0  0  0
  9 27  1  0  0  0
 10 28  1  0  0  0
 11 12  1  0  0  0
 11 29  1  0  0  0
 12 13  2  0  0  0
 12 14  1  0  0  0
 14 15  2  0  0  0
 14 19  1  0  0  0
 15 16  1  0  0  0
 15 30  1  0  0  0
 16 17  2  0  0  0
 16 31  1  0  0  0
 17 18  1  0  0  0
 17 22  1  0  0  0
 18 19  2  0  0  0
 18 32  1  0  0  0
 19 33  1  0  0  0
 20 21  1  0  0  0
 21 34  1  0  0  0
 21 35  1  0  0  0
 21 36  1  0  0  0
 22 23  1  0  0  0
 23 37  1  0  0  0
 23 38  1  0  0  0
 23 39  1  0  0  0
M  END
> <s_m_entry_id>
53112

> <s_m_entry_name>
dock_pv.331

> <s_m_Source_Path>
/home/csk/Desktop/cluster/DUD-E-result/hdac8

> <s_m_Source_File>
dock_pv.maegz

> <i_m_Source_File_Index>
331

> <chembl_id>
CHEMBL3799297

> <chembl_pref_name>
None

> <i_lp_mmshare_version>
53161

> <i_f3d_flags>
0

> <r_lp_tautomer_probability>
1

> <s_lp_Force_Field>
OPLS_2005

> <r_lp_Energy>
35.748135

> <b_lp_Chiralities_Consistent>
1

> <s_lp_Variant>
CHEMBL3192_lig970-1

> <s_i_glide_gridfile>
glide-grid_3f07

> <i_i_glide_lignum>
1031

> <i_i_glide_rotatable_bonds>
8

> <r_i_docking_score>
-7.08044007598328

> <r_i_glide_ligand_efficiency>
-0.307845220694925

> <r_i_glide_ligand_efficiency_sa>
-0.875470857124405

> <r_i_glide_ligand_efficiency_ln>
-1.71211461225378

> <r_i_glide_gscore>
-7.08044007598328

> <r_i_glide_lipo>
-1.00190894138559

> <r_i_glide_hbond>
-0.608

> <r_i_glide_metal>
-2.20528782275072

> <r_i_glide_rewards>
-1.49379648812708

> <r_i_glide_evdw>
-21.6528205871582

> <r_i_glide_ecoul>
-9.48057746887207

> <r_i_glide_erotb>
0.930271271986309

> <r_i_glide_esite>
-0.196990446017485

> <r_i_glide_emodel>
-45.0347133611572

> <r_i_glide_energy>
-31.1333980560303

> <r_i_glide_einternal>
3.56634283065796

> <i_i_glide_confnum>
7

> <i_i_glide_posenum>
400

> <r_i_glide_eff_state_penalty>
0

> <s_user_duplicate_titles>
CHEMBL3192_lig970

> <s_m_subgroup_title>
dock_pv

> <s_m_subgroupid>
dock_pv

> <b_m_subgroup_collapsed>
1

$$$$
CHEMBL3192_lig1084
                    3D
 Schrodinger Suite 2021-1.
 41 43  0  0  1  0            999 V2000
  -30.2442   25.5699  -37.3255 O   0  0  0  0  0  0
  -29.4130   26.6782  -37.5810 N   0  0  0  0  0  0
  -29.4046   27.2079  -38.8069 C   0  0  0  0  0  0
  -30.2396   26.8690  -39.6391 O   0  0  0  0  0  0
  -28.3736   28.2812  -39.0988 C   0  0  0  0  0  0
  -27.1858   28.3038  -38.3810 C   0  0  0  0  0  0
  -26.2130   29.2690  -38.5903 C   0  0  0  0  0  0
  -26.3749   30.2177  -39.5787 C   0  0  0  0  0  0
  -25.3284   31.1424  -39.7627 N   0  0  0  0  0  0
  -25.5637   32.3288  -40.5850 C   0  0  0  0  0  0
  -26.4466   32.0061  -41.8067 C   0  0  2  0  0  0
  -27.7572   31.3159  -41.3846 C   0  0  0  0  0  0
  -27.5632   30.2429  -40.3313 C   0  0  0  0  0  0
  -28.5509   29.2690  -40.0815 C   0  0  0  0  0  0
  -25.7174   31.0768  -42.7032 N   0  0  1  0  0  0
  -24.7480   31.6695  -44.0402 S   0  0  0  0  0  0
  -24.2146   32.9812  -43.6596 O   0  0  0  0  0  0
  -23.8570   30.5724  -44.4379 O   0  0  0  0  0  0
  -25.9074   31.9500  -45.3814 C   0  0  0  0  0  0
  -26.9047   32.9242  -45.2613 C   0  0  0  0  0  0
  -27.8130   33.1325  -46.3006 C   0  0  0  0  0  0
  -27.7235   32.3752  -47.4685 C   0  0  0  0  0  0
  -26.7220   31.4125  -47.5999 C   0  0  0  0  0  0
  -26.6108   30.4689  -49.0418 Cl  0  0  0  0  0  0
  -25.8120   31.2086  -46.5616 C   0  0  0  0  0  0
  -29.6326   24.8273  -37.2502 H   0  0  0  0  0  0
  -28.8155   26.9292  -36.7984 H   0  0  0  0  0  0
  -27.0130   27.5647  -37.6136 H   0  0  0  0  0  0
  -25.3052   29.2522  -38.0044 H   0  0  0  0  0  0
  -24.6684   31.2971  -39.0120 H   0  0  0  0  0  0
  -26.0429   33.0859  -39.9623 H   0  0  0  0  0  0
  -24.6059   32.7587  -40.8822 H   0  0  0  0  0  0
  -26.6697   32.9338  -42.3308 H   0  0  0  0  0  0
  -28.2130   30.8690  -42.2614 H   0  0  0  0  0  0
  -28.4471   32.0620  -40.9917 H   0  0  0  0  0  0
  -29.4624   29.2888  -40.6626 H   0  0  0  0  0  0
  -25.4724   30.1613  -42.3190 H   0  0  0  0  0  0
  -26.9758   33.5313  -44.3726 H   0  0  0  0  0  0
  -28.5851   33.8820  -46.2042 H   0  0  0  0  0  0
  -28.4325   32.5306  -48.2696 H   0  0  0  0  0  0
  -25.0346   30.4690  -46.6740 H   0  0  0  0  0  0
  1  2  1  0  0  0
  1 26  1  0  0  0
  2  3  1  0  0  0
  2 27  1  0  0  0
  3  4  2  0  0  0
  3  5  1  0  0  0
  5  6  2  0  0  0
  5 14  1  0  0  0
  6  7  1  0  0  0
  6 28  1  0  0  0
  7  8  2  0  0  0
  7 29  1  0  0  0
  8  9  1  0  0  0
  8 13  1  0  0  0
  9 10  1  0  0  0
  9 30  1  0  0  0
 10 11  1  0  0  0
 10 31  1  0  0  0
 10 32  1  0  0  0
 11 12  1  0  0  0
 11 15  1  0  0  0
 11 33  1  0  0  0
 12 13  1  0  0  0
 12 34  1  0  0  0
 12 35  1  0  0  0
 13 14  2  0  0  0
 14 36  1  0  0  0
 15 16  1  0  0  0
 15 37  1  0  0  0
 16 17  2  0  0  0
 16 18  2  0  0  0
 16 19  1  0  0  0
 19 20  2  0  0  0
 19 25  1  0  0  0
 20 21  1  0  0  0
 20 38  1  0  0  0
 21 22  2  0  0  0
 21 39  1  0  0  0
 22 23  1  0  0  0
 22 40  1  0  0  0
 23 24  1  0  0  0
 23 25  2  0  0  0
 25 41  1  0  0  0
M  END
> <s_m_entry_id>
53113

> <s_m_entry_name>
dock_pv.332

> <s_m_Source_Path>
/home/csk/Desktop/cluster/DUD-E-result/hdac8

> <s_m_Source_File>
dock_pv.maegz

> <i_m_Source_File_Index>
332

> <chembl_id>
CHEMBL3694329

> <chembl_pref_name>
None

> <i_lp_mmshare_version>
53161

> <i_f3d_flags>
0

> <r_lp_tautomer_probability>
1

> <s_lp_Force_Field>
OPLS_2005

> <r_lp_Energy>
19.164385

> <b_lp_Chiralities_Consistent>
1

> <s_lp_Variant>
CHEMBL3192_lig1084-1

> <s_i_glide_gridfile>
glide-grid_3f07

> <i_i_glide_lignum>
1207

> <i_i_glide_rotatable_bonds>
6

> <r_i_docking_score>
-7.07253530285323

> <r_i_glide_ligand_efficiency>
-0.282901412114129

> <r_i_glide_ligand_efficiency_sa>
-0.827208746299621

> <r_i_glide_ligand_efficiency_ln>
-1.67640281355619

> <r_i_glide_gscore>
-7.07253530285323

> <r_i_glide_lipo>
-1.37594751309463

> <r_i_glide_hbond>
-0.608

> <r_i_glide_metal>
-1.84819598275726

> <r_i_glide_rewards>
-0.440536743398836

> <r_i_glide_evdw>
-23.3945827484131

> <r_i_glide_ecoul>
-13.9053010940552

> <r_i_glide_erotb>
0.665829058045677

> <r_i_glide_esite>
-0.210159820119246

> <r_i_glide_emodel>
-52.7774443183248

> <r_i_glide_energy>
-37.2998838424683

> <r_i_glide_einternal>
1.41957771778107

> <i_i_glide_confnum>
41

> <i_i_glide_posenum>
277

> <r_i_glide_eff_state_penalty>
0

> <s_user_duplicate_titles>
CHEMBL3192_lig1084

> <s_m_subgroup_title>
dock_pv

> <s_m_subgroupid>
dock_pv

> <b_m_subgroup_collapsed>
1

$$$$
CHEMBL3192_lig1051
                    3D
 Schrodinger Suite 2021-1.
 49 52  0  0  1  0            999 V2000
  -28.0165   32.6650  -49.9342 C   0  0  0  0  0  0
  -27.4146   32.5105  -48.5489 C   0  0  0  0  0  0
  -26.5395   31.4627  -48.2620 C   0  0  0  0  0  0
  -25.9988   31.2691  -47.0349 N   0  0  0  0  0  0
  -26.3405   32.1364  -46.0493 C   0  0  0  0  0  0
  -27.2135   33.2232  -46.2282 C   0  0  0  0  0  0
  -27.7562   33.3874  -47.5162 C   0  0  0  0  0  0
  -27.5660   34.1514  -45.1077 C   0  0  0  0  0  0
  -28.0372   35.4537  -45.3245 C   0  0  0  0  0  0
  -28.3767   36.2131  -44.2049 C   0  0  0  0  0  0
  -28.2736   35.7321  -42.9420 N   0  0  0  0  0  0
  -27.7985   34.4689  -42.8082 C   0  0  0  0  0  0
  -27.7548   33.9905  -41.4909 N   0  0  0  0  0  0
  -27.2657   32.6613  -41.1162 C   0  0  1  0  0  0
  -26.1674   32.8433  -40.0679 C   0  0  0  0  0  0
  -25.5517   31.4886  -39.6874 C   0  0  0  0  0  0
  -26.6097   30.4232  -39.3898 C   0  0  0  0  0  0
  -26.2715   29.3077  -38.6307 C   0  0  0  0  0  0
  -27.1896   28.2972  -38.3817 C   0  0  0  0  0  0
  -28.4556   28.3295  -38.9434 C   0  0  0  0  0  0
  -28.8112   29.4466  -39.7069 C   0  0  0  0  0  0
  -27.9251   30.5194  -39.8889 C   0  0  0  0  0  0
  -28.4075   31.8276  -40.4994 C   0  0  0  0  0  0
  -29.4123   27.1874  -38.7150 C   0  0  0  0  0  0
  -30.2147   26.8612  -39.5811 O   0  0  0  0  0  0
  -29.4137   26.6125  -37.5108 N   0  0  0  0  0  0
  -30.3832   25.6317  -37.2343 O   0  0  0  0  0  0
  -27.4144   33.6676  -43.8409 N   0  0  0  0  0  0
  -28.2058   31.6889  -50.3803 H   0  0  0  0  0  0
  -28.9780   33.1812  -49.8859 H   0  0  0  0  0  0
  -27.3449   33.2247  -50.5861 H   0  0  0  0  0  0
  -26.2608   30.7545  -49.0256 H   0  0  0  0  0  0
  -25.8840   31.9449  -45.0883 H   0  0  0  0  0  0
  -28.4530   34.1878  -47.7198 H   0  0  0  0  0  0
  -28.1392   35.8683  -46.3164 H   0  0  0  0  0  0
  -28.7450   37.2225  -44.3088 H   0  0  0  0  0  0
  -27.9601   34.6499  -40.7575 H   0  0  0  0  0  0
  -26.8728   32.1281  -41.9840 H   0  0  0  0  0  0
  -26.6044   33.3040  -39.1813 H   0  0  0  0  0  0
  -25.3875   33.5211  -40.4193 H   0  0  0  0  0  0
  -24.8808   31.6160  -38.8358 H   0  0  0  0  0  0
  -24.9321   31.1340  -40.5124 H   0  0  0  0  0  0
  -25.2731   29.2351  -38.2228 H   0  0  0  0  0  0
  -26.9176   27.4579  -37.7628 H   0  0  0  0  0  0
  -29.8088   29.5242  -40.1153 H   0  0  0  0  0  0
  -29.2337   31.6533  -41.1805 H   0  0  0  0  0  0
  -28.8065   32.3813  -39.6574 H   0  0  0  0  0  0
  -28.8539   26.8677  -36.7026 H   0  0  0  0  0  0
  -30.9694   26.0603  -36.6038 H   0  0  0  0  0  0
  1  2  1  0  0  0
  1 29  1  0  0  0
  1 30  1  0  0  0
  1 31  1  0  0  0
  2  3  2  0  0  0
  2  7  1  0  0  0
  3  4  1  0  0  0
  3 32  1  0  0  0
  4  5  2  0  0  0
  5  6  1  0  0  0
  5 33  1  0  0  0
  6  7  2  0  0  0
  6  8  1  0  0  0
  7 34  1  0  0  0
  8  9  2  0  0  0
  8 28  1  0  0  0
  9 10  1  0  0  0
  9 35  1  0  0  0
 10 11  2  0  0  0
 10 36  1  0  0  0
 11 12  1  0  0  0
 12 13  1  0  0  0
 12 28  2  0  0  0
 13 14  1  0  0  0
 13 37  1  0  0  0
 14 15  1  0  0  0
 14 23  1  0  0  0
 14 38  1  0  0  0
 15 16  1  0  0  0
 15 39  1  0  0  0
 15 40  1  0  0  0
 16 17  1  0  0  0
 16 41  1  0  0  0
 16 42  1  0  0  0
 17 18  2  0  0  0
 17 22  1  0  0  0
 18 19  1  0  0  0
 18 43  1  0  0  0
 19 20  2  0  0  0
 19 44  1  0  0  0
 20 21  1  0  0  0
 20 24  1  0  0  0
 21 22  2  0  0  0
 21 45  1  0  0  0
 22 23  1  0  0  0
 23 46  1  0  0  0
 23 47  1  0  0  0
 24 25  2  0  0  0
 24 26  1  0  0  0
 26 27  1  0  0  0
 26 48  1  0  0  0
 27 49  1  0  0  0
M  END
> <s_m_entry_id>
53114

> <s_m_entry_name>
dock_pv.333

> <s_m_Source_Path>
/home/csk/Desktop/cluster/DUD-E-result/hdac8

> <s_m_Source_File>
dock_pv.maegz

> <i_m_Source_File_Index>
333

> <chembl_id>
CHEMBL3694299

> <chembl_pref_name>
None

> <i_lp_mmshare_version>
53161

> <i_f3d_flags>
0

> <r_lp_tautomer_probability>
0.999999987636

> <s_lp_Force_Field>
OPLS_2005

> <r_lp_Energy>
21.862261

> <b_lp_Chiralities_Consistent>
1

> <s_lp_Variant>
CHEMBL3192_lig1051-2

> <s_i_glide_gridfile>
glide-grid_3f07

> <i_i_glide_lignum>
1142

> <i_i_glide_rotatable_bonds>
6

> <r_i_docking_score>
-7.06944708458659

> <r_i_glide_ligand_efficiency>
-0.252480253020949

> <r_i_glide_ligand_efficiency_sa>
-0.766678751088215

> <r_i_glide_ligand_efficiency_ln>
-1.63183595510838

> <r_i_glide_gscore>
-7.06944708458659

> <r_i_glide_lipo>
-1.21178836502626

> <r_i_glide_hbond>
-0.608

> <r_i_glide_metal>
-1.67965219546486

> <r_i_glide_rewards>
-1.13271515358148

> <r_i_glide_evdw>
-22.6011791229248

> <r_i_glide_ecoul>
-11.5033578872681

> <r_i_glide_erotb>
0.686330806018738

> <r_i_glide_esite>
-0.26805953729628

> <r_i_glide_emodel>
-50.039644680887

> <r_i_glide_energy>
-34.1045370101929

> <r_i_glide_einternal>
1.8114138841629

> <i_i_glide_confnum>
17

> <i_i_glide_posenum>
173

> <r_i_glide_eff_state_penalty>
0

> <s_user_duplicate_titles>
CHEMBL3192_lig1051

> <s_m_subgroup_title>
dock_pv

> <s_m_subgroupid>
dock_pv

> <b_m_subgroup_collapsed>
1

$$$$
CHEMBL3192_lig623
                    3D
 Schrodinger Suite 2021-1.
 53 54  0  0  1  0            999 V2000
  -29.8089   26.4689  -38.6097 C   0  0  0  0  0  0
  -28.5516   27.3622  -38.6182 C   0  0  0  0  0  0
  -28.7274   28.7465  -39.2940 C   0  0  0  0  0  0
  -27.6657   29.7905  -38.8961 C   0  0  0  0  0  0
  -26.3796   29.7779  -39.7369 C   0  0  0  0  0  0
  -25.4952   31.0165  -39.4608 C   0  0  0  0  0  0
  -24.2755   31.1642  -40.3878 C   0  0  0  0  0  0
  -30.5799   26.4739  -39.5783 O   0  0  0  0  0  0
  -29.9832   25.6896  -37.5310 N   0  0  0  0  0  0
  -31.0134   24.7389  -37.5433 O   0  0  0  0  0  0
  -24.6656   31.2566  -41.7948 N   0  0  0  0  0  0
  -23.8243   31.4620  -42.8230 C   0  0  0  0  0  0
  -26.0094   31.2336  -48.0968 N   0  0  0  0  0  0
  -25.5134   31.7107  -49.2474 C   0  0  0  0  0  0
  -26.0499   31.5019  -50.3319 O   0  0  0  0  0  0
  -24.2468   32.5768  -49.0496 C   0  0  0  0  0  0
  -23.3007   32.1348  -47.8739 C   0  0  0  0  0  0
  -24.1413   31.7526  -46.6328 C   0  0  0  0  0  0
  -23.6395   31.7727  -45.3219 C   0  0  0  0  0  0
  -24.4228   31.4137  -44.2138 C   0  0  0  0  0  0
  -25.7457   31.0054  -44.4418 C   0  0  0  0  0  0
  -26.2607   30.9573  -45.7325 C   0  0  0  0  0  0
  -25.4669   31.3259  -46.8176 C   0  0  0  0  0  0
  -22.3904   33.3492  -47.5607 C   0  0  0  0  0  0
  -22.4863   30.9008  -48.3222 C   0  0  0  0  0  0
  -22.6210   31.6684  -42.6611 O   0  0  0  0  0  0
  -28.2259   27.4993  -37.5870 H   0  0  0  0  0  0
  -27.7433   26.8254  -39.1141 H   0  0  0  0  0  0
  -28.7678   28.6432  -40.3767 H   0  0  0  0  0  0
  -29.6761   29.1859  -39.0097 H   0  0  0  0  0  0
  -28.1191   30.7786  -38.9835 H   0  0  0  0  0  0
  -27.4127   29.6693  -37.8450 H   0  0  0  0  0  0
  -25.8134   28.8695  -39.5339 H   0  0  0  0  0  0
  -26.6481   29.7452  -40.7931 H   0  0  0  0  0  0
  -26.0900   31.9296  -39.5262 H   0  0  0  0  0  0
  -25.1468   30.9840  -38.4286 H   0  0  0  0  0  0
  -23.6845   32.0335  -40.0915 H   0  0  0  0  0  0
  -23.6360   30.2871  -40.2763 H   0  0  0  0  0  0
  -29.3952   25.6233  -36.7099 H   0  0  0  0  0  0
  -30.5459   23.8936  -37.5830 H   0  0  0  0  0  0
  -25.6506   31.1990  -41.9888 H   0  0  0  0  0  0
  -26.8927   30.7622  -48.2149 H   0  0  0  0  0  0
  -23.7089   32.6199  -49.9958 H   0  0  0  0  0  0
  -24.6254   33.5846  -48.8712 H   0  0  0  0  0  0
  -22.6121   32.0703  -45.1634 H   0  0  0  0  0  0
  -26.3922   30.7135  -43.6281 H   0  0  0  0  0  0
  -27.2814   30.6322  -45.8812 H   0  0  0  0  0  0
  -21.8909   33.7139  -48.4609 H   0  0  0  0  0  0
  -22.9551   34.1827  -47.1409 H   0  0  0  0  0  0
  -21.5983   33.0974  -46.8534 H   0  0  0  0  0  0
  -21.8680   31.1268  -49.1929 H   0  0  0  0  0  0
  -21.8134   30.5558  -47.5367 H   0  0  0  0  0  0
  -23.1297   30.0672  -48.5920 H   0  0  0  0  0  0
  1  2  1  0  0  0
  1  8  2  0  0  0
  1  9  1  0  0  0
  2  3  1  0  0  0
  2 27  1  0  0  0
  2 28  1  0  0  0
  3  4  1  0  0  0
  3 29  1  0  0  0
  3 30  1  0  0  0
  4  5  1  0  0  0
  4 31  1  0  0  0
  4 32  1  0  0  0
  5  6  1  0  0  0
  5 33  1  0  0  0
  5 34  1  0  0  0
  6  7  1  0  0  0
  6 35  1  0  0  0
  6 36  1  0  0  0
  7 11  1  0  0  0
  7 37  1  0  0  0
  7 38  1  0  0  0
  9 10  1  0  0  0
  9 39  1  0  0  0
 10 40  1  0  0  0
 11 12  1  0  0  0
 11 41  1  0  0  0
 12 20  1  0  0  0
 12 26  2  0  0  0
 13 14  1  0  0  0
 13 23  1  0  0  0
 13 42  1  0  0  0
 14 15  2  0  0  0
 14 16  1  0  0  0
 16 17  1  0  0  0
 16 43  1  0  0  0
 16 44  1  0  0  0
 17 18  1  0  0  0
 17 24  1  0  0  0
 17 25  1  0  0  0
 18 19  1  0  0  0
 18 23  2  0  0  0
 19 20  2  0  0  0
 19 45  1  0  0  0
 20 21  1  0  0  0
 21 22  2  0  0  0
 21 46  1  0  0  0
 22 23  1  0  0  0
 22 47  1  0  0  0
 24 48  1  0  0  0
 24 49  1  0  0  0
 24 50  1  0  0  0
 25 51  1  0  0  0
 25 52  1  0  0  0
 25 53  1  0  0  0
M  END
> <s_m_entry_id>
53115

> <s_m_entry_name>
dock_pv.334

> <s_m_Source_Path>
/home/csk/Desktop/cluster/DUD-E-result/hdac8

> <s_m_Source_File>
dock_pv.maegz

> <i_m_Source_File_Index>
334

> <chembl_id>
CHEMBL3311473

> <chembl_pref_name>
None

> <i_lp_mmshare_version>
53161

> <i_f3d_flags>
0

> <r_lp_tautomer_probability>
1

> <s_lp_Force_Field>
OPLS_2005

> <r_lp_Energy>
24.659474

> <b_lp_Chiralities_Consistent>
1

> <s_lp_Variant>
CHEMBL3192_lig623-1

> <s_i_glide_gridfile>
glide-grid_3f07

> <i_i_glide_lignum>
649

> <i_i_glide_rotatable_bonds>
11

> <r_i_docking_score>
-7.0550917668033

> <r_i_glide_ligand_efficiency>
-0.271349683338588

> <r_i_glide_ligand_efficiency_sa>
-0.803872369181122

> <r_i_glide_ligand_efficiency_ln>
-1.6568651517895

> <r_i_glide_gscore>
-7.0550917668033

> <r_i_glide_lipo>
-1.09522754536144

> <r_i_glide_hbond>
-0.306206507526869

> <r_i_glide_metal>
-2.3

> <r_i_glide_rewards>
-1.04392358625844

> <r_i_glide_evdw>
-26.0788879394531

> <r_i_glide_ecoul>
-15.5559101104736

> <r_i_glide_erotb>
1.46900925389351

> <r_i_glide_esite>
-0.141412468006354

> <r_i_glide_emodel>
-61.8167311325683

> <r_i_glide_energy>
-41.6347980499268

> <r_i_glide_einternal>
7.71694135665894

> <i_i_glide_confnum>
117

> <i_i_glide_posenum>
364

> <r_i_glide_eff_state_penalty>
0

> <s_user_duplicate_titles>
CHEMBL3192_lig623

> <s_m_subgroup_title>
dock_pv

> <s_m_subgroupid>
dock_pv

> <b_m_subgroup_collapsed>
1

$$$$
CHEMBL3192_lig487
                    3D
 Schrodinger Suite 2021-1.
 21 21  0  0  1  0            999 V2000
  -30.1811   26.1892  -38.2757 C   0  0  0  0  0  0
  -31.0130   26.0690  -39.1810 O   0  0  0  0  0  0
  -30.2130   25.4669  -37.1439 N   0  0  0  0  0  0
  -31.1946   24.4690  -37.0165 O   0  0  0  0  0  0
  -26.1800   31.2106  -39.8950 C   0  0  0  0  0  0
  -25.9477   30.2473  -38.9183 C   0  0  0  0  0  0
  -26.8610   29.2114  -38.7398 C   0  0  0  0  0  0
  -28.0112   29.1337  -39.5314 C   0  0  0  0  0  0
  -28.2282   30.1062  -40.5148 C   0  0  0  0  0  0
  -27.3148   31.1415  -40.6987 C   0  0  0  0  0  0
  -29.0254   28.0746  -39.3514 C   0  0  0  0  0  0
  -29.1044   27.1557  -38.3595 C   0  0  0  0  0  0
  -29.5667   25.4965  -36.3667 H   0  0  0  0  0  0
  -30.7116   23.6497  -37.1810 H   0  0  0  0  0  0
  -25.4715   32.0168  -40.0268 H   0  0  0  0  0  0
  -25.0604   30.3049  -38.3045 H   0  0  0  0  0  0
  -26.6613   28.4711  -37.9810 H   0  0  0  0  0  0
  -29.1069   30.0690  -41.1430 H   0  0  0  0  0  0
  -27.4829   31.8891  -41.4598 H   0  0  0  0  0  0
  -29.7863   28.0718  -40.1175 H   0  0  0  0  0  0
  -28.3620   27.1271  -37.5810 H   0  0  0  0  0  0
  1  3  1  0  0  0
  1  2  2  0  0  0
  1 12  1  0  0  0
  3  4  1  0  0  0
  3 13  1  0  0  0
  4 14  1  0  0  0
  5 10  1  0  0  0
  5  6  2  0  0  0
  5 15  1  0  0  0
  6  7  1  0  0  0
  6 16  1  0  0  0
  7  8  2  0  0  0
  7 17  1  0  0  0
  8  9  1  0  0  0
  8 11  1  0  0  0
  9 10  2  0  0  0
  9 18  1  0  0  0
 10 19  1  0  0  0
 11 12  2  0  0  0
 11 20  1  0  0  0
 12 21  1  0  0  0
M  END
> <s_m_entry_id>
53116

> <s_m_entry_name>
dock_pv.335

> <s_m_Source_Path>
/home/csk/Desktop/cluster/DUD-E-result/hdac8

> <s_m_Source_File>
dock_pv.maegz

> <i_m_Source_File_Index>
335

> <chembl_id>
CHEMBL154574

> <chembl_pref_name>
None

> <i_lp_mmshare_version>
53161

> <i_f3d_flags>
0

> <r_lp_tautomer_probability>
1

> <s_lp_Force_Field>
OPLS_2005

> <r_lp_Energy>
14.116412

> <b_lp_Chiralities_Consistent>
1

> <s_lp_Variant>
CHEMBL3192_lig487-1

> <s_i_glide_gridfile>
glide-grid_3f07

> <i_i_glide_lignum>
508

> <i_i_glide_rotatable_bonds>
4

> <r_i_docking_score>
-7.05070610280629

> <r_i_glide_ligand_efficiency>
-0.587558841900524

> <r_i_glide_ligand_efficiency_sa>
-1.34517394820913

> <r_i_glide_ligand_efficiency_ln>
-2.02321233001613

> <r_i_glide_gscore>
-7.05070610280629

> <r_i_glide_lipo>
-0.819259006130842

> <r_i_glide_hbond>
-0.237510417154769

> <r_i_glide_metal>
-2.3

> <r_i_glide_rewards>
-2.51587535700014

> <r_i_glide_evdw>
-23.3834533691406

> <r_i_glide_ecoul>
-10.803108215332

> <r_i_glide_erotb>
1.7115775782363

> <r_i_glide_esite>
-0.1

> <r_i_glide_emodel>
-52.7309677433412

> <r_i_glide_energy>
-34.1865615844727

> <r_i_glide_einternal>
0.944544315338135

> <i_i_glide_confnum>
6

> <i_i_glide_posenum>
96

> <r_i_glide_eff_state_penalty>
0

> <s_user_duplicate_titles>
CHEMBL3192_lig487

> <s_m_subgroup_title>
dock_pv

> <s_m_subgroupid>
dock_pv

> <b_m_subgroup_collapsed>
1

$$$$
CHEMBL3192_lig1073
                    3D
 Schrodinger Suite 2021-1.
 41 43  0  0  1  0            999 V2000
  -30.4326   25.9764  -37.1269 O   0  0  0  0  0  0
  -29.4132   26.8528  -37.5421 N   0  0  0  0  0  0
  -29.3820   27.2690  -38.8070 C   0  0  0  0  0  0
  -30.2130   26.8691  -39.6176 O   0  0  0  0  0  0
  -28.3404   28.3243  -39.1379 C   0  0  0  0  0  0
  -27.1783   28.3962  -38.3810 C   0  0  0  0  0  0
  -26.2133   29.3604  -38.6090 C   0  0  0  0  0  0
  -26.3335   30.2754  -39.6400 C   0  0  0  0  0  0
  -25.1712   31.2355  -39.9142 C   0  0  0  0  0  0
  -25.5592   32.3797  -40.8659 C   0  0  0  0  0  0
  -26.3655   31.8711  -42.0763 C   0  0  2  0  0  0
  -27.6769   31.2461  -41.5584 C   0  0  0  0  0  0
  -27.4963   30.2303  -40.4379 C   0  0  0  0  0  0
  -28.4914   29.2688  -40.1677 C   0  0  0  0  0  0
  -25.5742   30.8308  -42.7819 N   0  0  2  0  0  0
  -24.4530   31.3036  -44.0473 S   0  0  0  0  0  0
  -23.5770   32.3548  -43.5202 O   0  0  0  0  0  0
  -23.9002   30.0701  -44.6180 O   0  0  0  0  0  0
  -25.4893   32.0459  -45.2998 C   0  0  0  0  0  0
  -26.3394   31.2519  -46.0730 C   0  0  0  0  0  0
  -27.1554   31.8466  -47.0359 C   0  0  0  0  0  0
  -27.0991   33.2321  -47.1888 C   0  0  0  0  0  0
  -26.2801   34.0226  -46.4467 N   0  0  0  0  0  0
  -25.4868   33.4266  -45.5199 C   0  0  0  0  0  0
  -30.9813   26.5187  -36.5514 H   0  0  0  0  0  0
  -28.8201   27.1764  -36.7817 H   0  0  0  0  0  0
  -27.0125   27.6911  -37.5809 H   0  0  0  0  0  0
  -25.3210   29.3639  -37.9992 H   0  0  0  0  0  0
  -24.7879   31.6513  -38.9800 H   0  0  0  0  0  0
  -24.3498   30.6645  -40.3509 H   0  0  0  0  0  0
  -26.1508   33.1086  -40.3091 H   0  0  0  0  0  0
  -24.6560   32.9004  -41.1864 H   0  0  0  0  0  0
  -26.5070   32.7436  -42.7165 H   0  0  0  0  0  0
  -28.2128   30.7810  -42.3811 H   0  0  0  0  0  0
  -28.3136   32.0448  -41.1790 H   0  0  0  0  0  0
  -29.3874   29.2635  -40.7728 H   0  0  0  0  0  0
  -26.0741   29.9589  -42.9618 H   0  0  0  0  0  0
  -26.3647   30.1813  -45.9273 H   0  0  0  0  0  0
  -27.8128   31.2466  -47.6478 H   0  0  0  0  0  0
  -27.7181   33.7322  -47.9199 H   0  0  0  0  0  0
  -24.8480   34.0845  -44.9455 H   0  0  0  0  0  0
  1  2  1  0  0  0
  1 25  1  0  0  0
  2  3  1  0  0  0
  2 26  1  0  0  0
  3  4  2  0  0  0
  3  5  1  0  0  0
  5  6  2  0  0  0
  5 14  1  0  0  0
  6  7  1  0  0  0
  6 27  1  0  0  0
  7  8  2  0  0  0
  7 28  1  0  0  0
  8  9  1  0  0  0
  8 13  1  0  0  0
  9 10  1  0  0  0
  9 29  1  0  0  0
  9 30  1  0  0  0
 10 11  1  0  0  0
 10 31  1  0  0  0
 10 32  1  0  0  0
 11 12  1  0  0  0
 11 15  1  0  0  0
 11 33  1  0  0  0
 12 13  1  0  0  0
 12 34  1  0  0  0
 12 35  1  0  0  0
 13 14  2  0  0  0
 14 36  1  0  0  0
 15 16  1  0  0  0
 15 37  1  0  0  0
 16 17  2  0  0  0
 16 18  2  0  0  0
 16 19  1  0  0  0
 19 20  2  0  0  0
 19 24  1  0  0  0
 20 21  1  0  0  0
 20 38  1  0  0  0
 21 22  2  0  0  0
 21 39  1  0  0  0
 22 23  1  0  0  0
 22 40  1  0  0  0
 23 24  2  0  0  0
 24 41  1  0  0  0
M  END
> <s_m_entry_id>
53117

> <s_m_entry_name>
dock_pv.336

> <s_m_Source_Path>
/home/csk/Desktop/cluster/DUD-E-result/hdac8

> <s_m_Source_File>
dock_pv.maegz

> <i_m_Source_File_Index>
336

> <chembl_id>
CHEMBL3694318

> <chembl_pref_name>
None

> <i_lp_mmshare_version>
53161

> <i_f3d_flags>
0

> <r_lp_tautomer_probability>
1

> <s_lp_Force_Field>
OPLS_2005

> <r_lp_Energy>
27.900325

> <b_lp_Chiralities_Consistent>
1

> <s_lp_Variant>
CHEMBL3192_lig1073-1

> <s_i_glide_gridfile>
glide-grid_3f07

> <i_i_glide_lignum>
1185

> <i_i_glide_rotatable_bonds>
6

> <r_i_docking_score>
-7.03187212698012

> <r_i_glide_ligand_efficiency>
-0.292994671957505

> <r_i_glide_ligand_efficiency_sa>
-0.84514287857084

> <r_i_glide_ligand_efficiency_ln>
-1.68304967157269

> <r_i_glide_gscore>
-7.03187212698012

> <r_i_glide_lipo>
-1.3079597317603

> <r_i_glide_hbond>
-0.608

> <r_i_glide_metal>
-1.75454470176921

> <r_i_glide_rewards>
-0.907226111904409

> <r_i_glide_evdw>
-20.8202838897705

> <r_i_glide_ecoul>
-13.3421382904053

> <r_i_glide_erotb>
0.788193356503118

> <r_i_glide_esite>
-0.2

> <r_i_glide_emodel>
-52.4234180789327

> <r_i_glide_energy>
-34.1624221801758

> <r_i_glide_einternal>
1.01093018054962

> <i_i_glide_confnum>
189

> <i_i_glide_posenum>
318

> <r_i_glide_eff_state_penalty>
0

> <s_user_duplicate_titles>
CHEMBL3192_lig1073

> <s_m_subgroup_title>
dock_pv

> <s_m_subgroupid>
dock_pv

> <b_m_subgroup_collapsed>
1

$$$$
CHEMBL3192_lig940
                    3D
 Schrodinger Suite 2021-1.
 43 45  0  0  1  0            999 V2000
  -25.0398   30.5117  -44.3526 C   0  0  0  0  0  0
  -24.1143   31.2534  -45.0767 C   0  0  0  0  0  0
  -23.1424   32.0038  -44.4219 C   0  0  0  0  0  0
  -25.0137   30.5090  -42.9607 C   0  0  0  0  0  0
  -24.0366   31.2688  -42.2465 C   0  0  0  0  0  0
  -23.0835   32.0199  -43.0076 C   0  0  0  0  0  0
  -22.0941   32.7431  -42.4156 N   0  0  0  0  0  0
  -22.0351   32.6933  -41.0659 C   0  0  0  0  0  0
  -22.8546   32.0052  -40.2466 N   0  0  0  0  0  0
  -23.8759   31.3085  -40.8123 C   0  0  0  0  0  0
  -24.7451   30.6067  -39.9254 N   0  0  0  0  0  0
  -26.1535   30.5923  -40.0125 C   0  0  0  0  0  0
  -24.2590   30.3571  -38.5574 C   0  0  0  0  0  0
  -26.8901   29.4635  -39.6255 C   0  0  0  0  0  0
  -28.2762   29.4094  -39.8218 C   0  0  0  0  0  0
  -28.9273   30.5074  -40.3811 C   0  0  0  0  0  0
  -28.2116   31.6498  -40.7298 C   0  0  0  0  0  0
  -26.8348   31.6912  -40.5480 C   0  0  0  0  0  0
  -29.0439   28.2997  -39.5532 O   0  0  0  0  0  0
  -28.6638   27.4423  -38.4781 C   0  0  0  0  0  0
  -29.8130   26.4556  -38.2291 C   0  0  0  0  0  0
  -30.0321   26.0689  -36.9613 N   0  0  0  0  0  0
  -30.5019   26.0691  -39.1810 O   0  0  0  0  0  0
  -31.0454   25.1275  -36.7186 O   0  0  0  0  0  0
  -20.9498   33.5049  -40.3893 C   0  0  0  0  0  0
  -25.7814   29.9264  -44.8772 H   0  0  0  0  0  0
  -24.1465   31.2429  -46.1568 H   0  0  0  0  0  0
  -22.4170   32.5703  -44.9885 H   0  0  0  0  0  0
  -25.7265   29.8966  -42.4312 H   0  0  0  0  0  0
  -23.2069   30.0685  -38.5561 H   0  0  0  0  0  0
  -24.3492   31.2687  -37.9677 H   0  0  0  0  0  0
  -24.8035   29.5709  -38.0366 H   0  0  0  0  0  0
  -26.3688   28.6029  -39.2378 H   0  0  0  0  0  0
  -29.9934   30.4676  -40.5505 H   0  0  0  0  0  0
  -28.7087   32.5011  -41.1665 H   0  0  0  0  0  0
  -26.2930   32.5794  -40.8409 H   0  0  0  0  0  0
  -28.4602   28.0257  -37.5811 H   0  0  0  0  0  0
  -27.7737   26.8692  -38.7381 H   0  0  0  0  0  0
  -29.5197   26.3395  -36.1299 H   0  0  0  0  0  0
  -30.5665   24.3066  -36.5646 H   0  0  0  0  0  0
  -20.1934   33.8475  -41.0968 H   0  0  0  0  0  0
  -21.3890   34.3730  -39.8957 H   0  0  0  0  0  0
  -20.4493   32.9064  -39.6264 H   0  0  0  0  0  0
  1  2  2  0  0  0
  1  4  1  0  0  0
  1 26  1  0  0  0
  2  3  1  0  0  0
  2 27  1  0  0  0
  3  6  2  0  0  0
  3 28  1  0  0  0
  4  5  2  0  0  0
  4 29  1  0  0  0
  5  6  1  0  0  0
  5 10  1  0  0  0
  6  7  1  0  0  0
  7  8  2  0  0  0
  8  9  1  0  0  0
  8 25  1  0  0  0
  9 10  2  0  0  0
 10 11  1  0  0  0
 11 12  1  0  0  0
 11 13  1  0  0  0
 12 14  2  0  0  0
 12 18  1  0  0  0
 13 30  1  0  0  0
 13 31  1  0  0  0
 13 32  1  0  0  0
 14 15  1  0  0  0
 14 33  1  0  0  0
 15 16  2  0  0  0
 15 19  1  0  0  0
 16 17  1  0  0  0
 16 34  1  0  0  0
 17 18  2  0  0  0
 17 35  1  0  0  0
 18 36  1  0  0  0
 19 20  1  0  0  0
 20 21  1  0  0  0
 20 37  1  0  0  0
 20 38  1  0  0  0
 21 22  1  0  0  0
 21 23  2  0  0  0
 22 24  1  0  0  0
 22 39  1  0  0  0
 24 40  1  0  0  0
 25 41  1  0  0  0
 25 42  1  0  0  0
 25 43  1  0  0  0
M  END
> <s_m_entry_id>
53118

> <s_m_entry_name>
dock_pv.337

> <s_m_Source_Path>
/home/csk/Desktop/cluster/DUD-E-result/hdac8

> <s_m_Source_File>
dock_pv.maegz

> <i_m_Source_File_Index>
337

> <chembl_id>
CHEMBL3774413

> <chembl_pref_name>
None

> <i_lp_mmshare_version>
53161

> <i_f3d_flags>
0

> <r_lp_tautomer_probability>
1

> <s_lp_Force_Field>
OPLS_2005

> <r_lp_Energy>
33.46812

> <b_lp_Chiralities_Consistent>
1

> <s_lp_Variant>
CHEMBL3192_lig940-1

> <s_i_glide_gridfile>
glide-grid_3f07

> <i_i_glide_lignum>
1001

> <i_i_glide_rotatable_bonds>
7

> <r_i_docking_score>
-7.02430413389159

> <r_i_glide_ligand_efficiency>
-0.280972165355663

> <r_i_glide_ligand_efficiency_sa>
-0.82156759456253

> <r_i_glide_ligand_efficiency_ln>
-1.66497058114078

> <r_i_glide_gscore>
-7.02430413389159

> <r_i_glide_lipo>
-1.20896294106806

> <r_i_glide_hbond>
-0.458289256888785

> <r_i_glide_metal>
-2.3

> <r_i_glide_rewards>
-0.380171504847197

> <r_i_glide_evdw>
-34.1505432128906

> <r_i_glide_ecoul>
-12.2555027008057

> <r_i_glide_erotb>
0.991074307291441

> <r_i_glide_esite>
-0.122102172613609

> <r_i_glide_emodel>
-62.4400870188545

> <r_i_glide_energy>
-46.4060459136963

> <r_i_glide_einternal>
9.03699684143066

> <i_i_glide_confnum>
11

> <i_i_glide_posenum>
121

> <r_i_glide_eff_state_penalty>
0

> <s_user_duplicate_titles>
CHEMBL3192_lig940

> <s_m_subgroup_title>
dock_pv

> <s_m_subgroupid>
dock_pv

> <b_m_subgroup_collapsed>
1

$$$$
CHEMBL3192_lig197
                    3D
 Schrodinger Suite 2021-1.
 62 64  0  0  1  0            999 V2000
  -28.8233   30.7824  -40.2475 C   0  0  0  0  0  0
  -28.1565   29.6679  -39.7518 C   0  0  0  0  0  0
  -26.7535   29.6652  -39.7477 C   0  0  0  0  0  0
  -28.1085   31.8609  -40.7544 C   0  0  0  0  0  0
  -26.7165   31.8447  -40.7923 C   0  0  0  0  0  0
  -26.0213   30.7360  -40.2799 C   0  0  0  0  0  0
  -24.8344   32.2755  -42.3213 C   0  0  2  0  0  0
  -25.9310   32.9563  -41.4635 C   0  0  0  0  0  0
  -23.8847   31.6530  -41.3349 N   0  0  0  0  0  0
  -24.4907   30.6793  -40.3710 C   0  0  0  0  0  0
  -22.5625   32.1267  -41.1071 C   0  0  0  0  0  0
  -22.0025   31.5891  -39.9794 O   0  0  0  0  0  0
  -20.6463   31.7968  -39.5402 C   0  0  0  0  0  0
  -20.5969   31.1179  -38.1593 C   0  0  0  0  0  0
  -20.2667   33.2893  -39.3715 C   0  0  0  0  0  0
  -19.6646   31.1029  -40.5108 C   0  0  0  0  0  0
  -24.2968   33.2011  -43.4508 C   0  0  0  0  0  0
  -24.6254   34.3878  -43.4900 O   0  0  0  0  0  0
  -23.5142   32.6012  -44.3734 N   0  0  0  0  0  0
  -22.9773   33.1472  -45.5530 C   0  0  0  0  0  0
  -21.8477   32.5166  -46.0825 C   0  0  0  0  0  0
  -21.2557   32.9846  -47.2596 C   0  0  0  0  0  0
  -21.8011   34.0912  -47.9156 C   0  0  0  0  0  0
  -22.9368   34.7177  -47.4049 C   0  0  0  0  0  0
  -23.5274   34.2475  -46.2320 C   0  0  0  0  0  0
  -25.2943   31.4859  -42.9181 H   0  0  0  0  0  0
  -28.9570   28.6314  -39.3250 O   0  0  0  0  0  0
  -28.3803   27.4839  -38.7117 C   0  0  0  0  0  0
  -29.5539   26.5888  -38.3035 C   0  0  0  0  0  0
  -30.2449   26.0690  -39.1810 O   0  0  0  0  0  0
  -29.8131   26.4688  -36.9927 N   0  0  0  0  0  0
  -30.8849   25.6564  -36.5892 O   0  0  0  0  0  0
  -21.9385   32.8956  -41.8383 O   0  0  0  0  0  0
  -20.0103   32.3111  -47.8028 C   0  0  0  0  0  0
  -29.9032   30.7960  -40.2586 H   0  0  0  0  0  0
  -26.2146   28.8110  -39.3690 H   0  0  0  0  0  0
  -28.6333   32.7099  -41.1614 H   0  0  0  0  0  0
  -25.4950   33.6241  -40.7149 H   0  0  0  0  0  0
  -26.6043   33.5636  -42.0729 H   0  0  0  0  0  0
  -24.2126   29.6706  -40.6678 H   0  0  0  0  0  0
  -24.1120   30.8235  -39.3581 H   0  0  0  0  0  0
  -20.8806   30.0689  -38.2205 H   0  0  0  0  0  0
  -19.6004   31.1667  -37.7182 H   0  0  0  0  0  0
  -21.2894   31.5953  -37.4632 H   0  0  0  0  0  0
  -20.1759   33.8088  -40.3245 H   0  0  0  0  0  0
  -21.0121   33.8251  -38.7863 H   0  0  0  0  0  0
  -19.3112   33.3998  -38.8585 H   0  0  0  0  0  0
  -19.6523   31.5867  -41.4879 H   0  0  0  0  0  0
  -18.6449   31.1184  -40.1257 H   0  0  0  0  0  0
  -19.9401   30.0632  -40.6752 H   0  0  0  0  0  0
  -23.1989   31.6702  -44.1533 H   0  0  0  0  0  0
  -21.4129   31.6708  -45.5709 H   0  0  0  0  0  0
  -21.3490   34.4651  -48.8230 H   0  0  0  0  0  0
  -23.3619   35.5674  -47.9189 H   0  0  0  0  0  0
  -24.4150   34.7450  -45.8722 H   0  0  0  0  0  0
  -27.7441   26.9362  -39.4094 H   0  0  0  0  0  0
  -27.7729   27.7637  -37.8513 H   0  0  0  0  0  0
  -29.2992   26.8917  -36.2225 H   0  0  0  0  0  0
  -30.4572   24.8808  -36.2139 H   0  0  0  0  0  0
  -19.4641   32.9610  -48.4876 H   0  0  0  0  0  0
  -20.2684   31.3842  -48.3158 H   0  0  0  0  0  0
  -19.3306   32.0696  -46.9849 H   0  0  0  0  0  0
  1  4  1  0  0  0
  1  2  2  0  0  0
  1 35  1  0  0  0
  2  3  1  0  0  0
  2 27  1  0  0  0
  3  6  2  0  0  0
  3 36  1  0  0  0
  4  5  2  0  0  0
  4 37  1  0  0  0
  5  6  1  0  0  0
  5  8  1  0  0  0
  6 10  1  0  0  0
  7 17  1  0  0  0
  7  8  1  0  0  0
  7  9  1  0  0  0
  7 26  1  0  0  0
  8 38  1  0  0  0
  8 39  1  0  0  0
  9 10  1  0  0  0
  9 11  1  0  0  0
 10 40  1  0  0  0
 10 41  1  0  0  0
 11 12  1  0  0  0
 11 33  2  0  0  0
 12 13  1  0  0  0
 13 14  1  0  0  0
 13 15  1  0  0  0
 13 16  1  0  0  0
 14 42  1  0  0  0
 14 43  1  0  0  0
 14 44  1  0  0  0
 15 45  1  0  0  0
 15 46  1  0  0  0
 15 47  1  0  0  0
 16 48  1  0  0  0
 16 49  1  0  0  0
 16 50  1  0  0  0
 17 18  2  0  0  0
 17 19  1  0  0  0
 19 20  1  0  0  0
 19 51  1  0  0  0
 20 21  2  0  0  0
 20 25  1  0  0  0
 21 22  1  0  0  0
 21 52  1  0  0  0
 22 23  2  0  0  0
 22 34  1  0  0  0
 23 24  1  0  0  0
 23 53  1  0  0  0
 24 25  2  0  0  0
 24 54  1  0  0  0
 25 55  1  0  0  0
 27 28  1  0  0  0
 28 29  1  0  0  0
 28 56  1  0  0  0
 28 57  1  0  0  0
 29 30  2  0  0  0
 29 31  1  0  0  0
 31 32  1  0  0  0
 31 58  1  0  0  0
 32 59  1  0  0  0
 34 60  1  0  0  0
 34 61  1  0  0  0
 34 62  1  0  0  0
M  END
> <s_m_entry_id>
53119

> <s_m_entry_name>
dock_pv.338

> <s_m_Source_Path>
/home/csk/Desktop/cluster/DUD-E-result/hdac8

> <s_m_Source_File>
dock_pv.maegz

> <i_m_Source_File_Index>
338

> <chembl_id>
CHEMBL604920

> <chembl_pref_name>
None

> <i_lp_mmshare_version>
53161

> <i_f3d_flags>
0

> <r_lp_tautomer_probability>
1

> <s_lp_Force_Field>
OPLS_2005

> <r_lp_Energy>
43.779748

> <b_lp_Chiralities_Consistent>
1

> <s_lp_Variant>
CHEMBL3192_lig197-1

> <s_i_glide_gridfile>
glide-grid_3f07

> <i_i_glide_lignum>
207

> <i_i_glide_rotatable_bonds>
11

> <r_i_docking_score>
-7.00533970224627

> <r_i_glide_ligand_efficiency>
-0.21228302128019

> <r_i_glide_ligand_efficiency_sa>
-0.680905077637847

> <r_i_glide_ligand_efficiency_ln>
-1.55795127807181

> <r_i_glide_gscore>
-7.00533970224627

> <r_i_glide_lipo>
-0.829987699135542

> <r_i_glide_hbond>
-0.508881013413444

> <r_i_glide_metal>
-2.3

> <r_i_glide_rewards>
-0.459402710651398

> <r_i_glide_evdw>
-31.0863819122314

> <r_i_glide_ecoul>
-13.593150138855

> <r_i_glide_erotb>
0.871424912994655

> <r_i_glide_esite>
-0.185201575600716

> <r_i_glide_emodel>
-60.3707874590047

> <r_i_glide_energy>
-44.6795320510864

> <r_i_glide_einternal>
10.9011859893799

> <i_i_glide_confnum>
54

> <i_i_glide_posenum>
162

> <r_i_glide_eff_state_penalty>
0

> <s_user_duplicate_titles>
CHEMBL3192_lig197

> <s_m_subgroup_title>
dock_pv

> <s_m_subgroupid>
dock_pv

> <b_m_subgroup_collapsed>
1

$$$$
CHEMBL3192_lig576
                    3D
 Schrodinger Suite 2021-1.
 54 55  0  0  1  0            999 V2000
  -25.4222   31.2690  -46.7729 C   0  0  0  0  0  0
  -24.1593   31.3783  -47.3510 C   0  0  0  0  0  0
  -23.0139   31.3726  -46.5593 C   0  0  0  0  0  0
  -23.1313   31.2634  -45.1765 C   0  0  0  0  0  0
  -24.3923   31.1467  -44.5852 C   0  0  0  0  0  0
  -25.5426   31.1523  -45.3904 C   0  0  0  0  0  0
  -24.4154   31.0875  -43.1810 N   0  0  0  0  0  0
  -25.4130   30.6936  -42.3558 C   0  0  0  0  0  0
  -25.1802   30.8423  -40.8242 C   0  0  2  0  0  0
  -26.4640   30.1784  -42.7398 O   0  0  0  0  0  0
  -26.3652   31.5049  -40.0561 C   0  0  0  0  0  0
  -23.8938   31.4673  -40.4701 N   0  0  0  0  0  0
  -27.6836   30.6987  -39.9632 C   0  0  0  0  0  0
  -27.5078   29.2875  -39.3707 C   0  0  0  0  0  0
  -23.1912   31.1699  -39.3626 C   0  0  0  0  0  0
  -21.7731   31.7856  -39.2453 C   0  0  1  0  0  0
  -23.6588   30.4690  -38.4613 O   0  0  0  0  0  0
  -28.8363   28.5731  -39.0813 C   0  0  0  0  0  0
  -28.6054   27.1692  -38.4886 C   0  0  0  0  0  0
  -29.8956   26.3826  -38.2237 C   0  0  0  0  0  0
  -30.1950   26.0664  -36.9529 N   0  0  0  0  0  0
  -30.6087   26.0690  -39.1810 O   0  0  0  0  0  0
  -31.3288   25.2718  -36.7180 O   0  0  0  0  0  0
  -21.0156   31.2690  -38.1043 N   0  0  0  0  0  0
  -19.7118   31.0421  -38.3223 C   0  0  0  0  0  0
  -19.4893   31.2728  -39.8140 C   0  0  0  0  0  0
  -20.8722   31.4269  -40.4284 C   0  0  0  0  0  0
  -18.8607   30.7164  -37.5017 O   0  0  0  0  0  0
  -26.3070   31.2810  -47.3930 H   0  0  0  0  0  0
  -24.0675   31.4717  -48.4232 H   0  0  0  0  0  0
  -22.0365   31.4568  -47.0127 H   0  0  0  0  0  0
  -22.2325   31.2690  -44.5758 H   0  0  0  0  0  0
  -26.5336   31.0923  -44.9674 H   0  0  0  0  0  0
  -23.5585   31.3764  -42.7399 H   0  0  0  0  0  0
  -25.0826   29.8114  -40.4826 H   0  0  0  0  0  0
  -26.0504   31.7284  -39.0344 H   0  0  0  0  0  0
  -26.5707   32.4847  -40.4902 H   0  0  0  0  0  0
  -23.5368   32.1698  -41.0984 H   0  0  0  0  0  0
  -28.3816   31.2600  -39.3412 H   0  0  0  0  0  0
  -28.1650   30.6350  -40.9393 H   0  0  0  0  0  0
  -26.9283   28.6712  -40.0591 H   0  0  0  0  0  0
  -26.9233   29.3527  -38.4505 H   0  0  0  0  0  0
  -21.9125   32.8659  -39.1810 H   0  0  0  0  0  0
  -29.4130   29.1798  -38.3810 H   0  0  0  0  0  0
  -29.4131   28.5092  -40.0046 H   0  0  0  0  0  0
  -28.0008   26.5749  -39.1757 H   0  0  0  0  0  0
  -28.0163   27.2690  -37.5810 H   0  0  0  0  0  0
  -29.6639   26.2777  -36.1167 H   0  0  0  0  0  0
  -30.9635   24.4045  -36.5163 H   0  0  0  0  0  0
  -21.4016   31.3087  -37.1727 H   0  0  0  0  0  0
  -18.9123   30.4650  -40.2649 H   0  0  0  0  0  0
  -18.9140   32.1935  -39.9156 H   0  0  0  0  0  0
  -21.1510   30.4690  -40.8677 H   0  0  0  0  0  0
  -20.9099   32.1681  -41.2280 H   0  0  0  0  0  0
  1  2  2  0  0  0
  1  6  1  0  0  0
  1 29  1  0  0  0
  2  3  1  0  0  0
  2 30  1  0  0  0
  3  4  2  0  0  0
  3 31  1  0  0  0
  4  5  1  0  0  0
  4 32  1  0  0  0
  5  6  2  0  0  0
  5  7  1  0  0  0
  6 33  1  0  0  0
  7  8  1  0  0  0
  7 34  1  0  0  0
  8  9  1  0  0  0
  8 10  2  0  0  0
  9 11  1  0  0  0
  9 12  1  0  0  0
  9 35  1  0  0  0
 11 13  1  0  0  0
 11 36  1  0  0  0
 11 37  1  0  0  0
 12 15  1  0  0  0
 12 38  1  0  0  0
 13 14  1  0  0  0
 13 39  1  0  0  0
 13 40  1  0  0  0
 14 18  1  0  0  0
 14 41  1  0  0  0
 14 42  1  0  0  0
 15 16  1  0  0  0
 15 17  2  0  0  0
 16 24  1  0  0  0
 16 27  1  0  0  0
 16 43  1  0  0  0
 18 19  1  0  0  0
 18 44  1  0  0  0
 18 45  1  0  0  0
 19 20  1  0  0  0
 19 46  1  0  0  0
 19 47  1  0  0  0
 20 21  1  0  0  0
 20 22  2  0  0  0
 21 23  1  0  0  0
 21 48  1  0  0  0
 23 49  1  0  0  0
 24 25  1  0  0  0
 24 50  1  0  0  0
 25 26  1  0  0  0
 25 28  2  0  0  0
 26 27  1  0  0  0
 26 51  1  0  0  0
 26 52  1  0  0  0
 27 53  1  0  0  0
 27 54  1  0  0  0
M  END
> <s_m_entry_id>
53120

> <s_m_entry_name>
dock_pv.339

> <s_m_Source_Path>
/home/csk/Desktop/cluster/DUD-E-result/hdac8

> <s_m_Source_File>
dock_pv.maegz

> <i_m_Source_File_Index>
339

> <chembl_id>
CHEMBL3098691

> <chembl_pref_name>
None

> <i_lp_mmshare_version>
53161

> <i_f3d_flags>
0

> <r_lp_tautomer_probability>
1

> <s_lp_Force_Field>
OPLS_2005

> <r_lp_Energy>
34.361704

> <b_lp_Chiralities_Consistent>
1

> <s_lp_Variant>
CHEMBL3192_lig576-1

> <s_i_glide_gridfile>
glide-grid_3f07

> <i_i_glide_lignum>
602

> <i_i_glide_rotatable_bonds>
14

> <r_i_docking_score>
-7.00462215310109

> <r_i_glide_ligand_efficiency>
-0.250165076896467

> <r_i_glide_ligand_efficiency_sa>
-0.759648512808472

> <r_i_glide_ligand_efficiency_ln>
-1.61687245757883

> <r_i_glide_gscore>
-7.00462215310109

> <r_i_glide_lipo>
-0.756300777266909

> <r_i_glide_hbond>
-0.261346621742682

> <r_i_glide_metal>
-2.3

> <r_i_glide_rewards>
-0.852913817912255

> <r_i_glide_evdw>
-36.0425262451172

> <r_i_glide_ecoul>
-15.0394144058228

> <r_i_glide_erotb>
1.40744517913091

> <r_i_glide_esite>
-0.183467642180882

> <r_i_glide_emodel>
-72.2987521666784

> <r_i_glide_energy>
-51.0819406509399

> <r_i_glide_einternal>
10.4082860946655

> <i_i_glide_confnum>
15

> <i_i_glide_posenum>
372

> <r_i_glide_eff_state_penalty>
0

> <s_user_duplicate_titles>
CHEMBL3192_lig576

> <s_m_subgroup_title>
dock_pv

> <s_m_subgroupid>
dock_pv

> <b_m_subgroup_collapsed>
1

$$$$
CHEMBL3192_lig735
                    3D
 Schrodinger Suite 2021-1.
 40 41  0  0  1  0            999 V2000
  -25.8540   30.5404  -39.5297 C   0  0  0  0  0  0
  -26.7975   29.3940  -39.9536 C   0  0  0  0  0  0
  -27.6506   28.8824  -38.7831 C   0  0  0  0  0  0
  -28.5998   27.7258  -39.1439 C   0  0  0  0  0  0
  -29.3451   27.2178  -37.8898 C   0  0  0  0  0  0
  -30.3614   26.0925  -38.1189 C   0  0  0  0  0  0
  -30.5217   25.2223  -37.1091 N   0  0  0  0  0  0
  -30.9939   26.0690  -39.1810 O   0  0  0  0  0  0
  -31.4130   24.1542  -37.2766 O   0  0  0  0  0  0
  -24.7685   30.8989  -40.5664 C   0  0  0  0  0  0
  -25.3104   31.2619  -41.9336 C   0  0  0  0  0  0
  -24.8204   30.9311  -43.0983 N   0  0  0  0  0  0
  -25.6697   31.5081  -43.9300 C   0  0  0  0  0  0
  -26.6539   32.1819  -43.3717 N   0  0  0  0  0  0
  -26.4265   32.0263  -42.0079 O   0  0  0  0  0  0
  -25.5265   31.4171  -45.4185 C   0  0  0  0  0  0
  -24.2568   31.3320  -46.0031 C   0  0  0  0  0  0
  -24.1246   31.2690  -47.3880 C   0  0  0  0  0  0
  -25.2630   31.2690  -48.1927 C   0  0  0  0  0  0
  -26.5319   31.3488  -47.6233 C   0  0  0  0  0  0
  -26.6623   31.4292  -46.2394 C   0  0  0  0  0  0
  -25.1006   31.1326  -49.9054 Cl  0  0  0  0  0  0
  -26.4427   31.4292  -39.2949 H   0  0  0  0  0  0
  -25.3507   30.2709  -38.5993 H   0  0  0  0  0  0
  -26.2131   28.5690  -40.3547 H   0  0  0  0  0  0
  -27.4456   29.7284  -40.7652 H   0  0  0  0  0  0
  -28.2342   29.7097  -38.3810 H   0  0  0  0  0  0
  -26.9863   28.5582  -37.9810 H   0  0  0  0  0  0
  -28.0217   26.9089  -39.5810 H   0  0  0  0  0  0
  -29.3035   28.0690  -39.9039 H   0  0  0  0  0  0
  -29.8291   28.0504  -37.3835 H   0  0  0  0  0  0
  -28.6130   26.8690  -37.1810 H   0  0  0  0  0  0
  -30.0218   25.1925  -36.2303 H   0  0  0  0  0  0
  -30.8354   23.4006  -37.4576 H   0  0  0  0  0  0
  -24.1851   31.7354  -40.1785 H   0  0  0  0  0  0
  -24.0674   30.0690  -40.6476 H   0  0  0  0  0  0
  -23.3685   31.3286  -45.3871 H   0  0  0  0  0  0
  -23.1421   31.2069  -47.8332 H   0  0  0  0  0  0
  -27.4130   31.3437  -48.2497 H   0  0  0  0  0  0
  -27.6510   31.4913  -45.8070 H   0  0  0  0  0  0
  1  2  1  0  0  0
  1 10  1  0  0  0
  1 23  1  0  0  0
  1 24  1  0  0  0
  2  3  1  0  0  0
  2 25  1  0  0  0
  2 26  1  0  0  0
  3  4  1  0  0  0
  3 27  1  0  0  0
  3 28  1  0  0  0
  4  5  1  0  0  0
  4 29  1  0  0  0
  4 30  1  0  0  0
  5  6  1  0  0  0
  5 31  1  0  0  0
  5 32  1  0  0  0
  6  7  1  0  0  0
  6  8  2  0  0  0
  7  9  1  0  0  0
  7 33  1  0  0  0
  9 34  1  0  0  0
 10 11  1  0  0  0
 10 35  1  0  0  0
 10 36  1  0  0  0
 11 12  2  0  0  0
 11 15  1  0  0  0
 12 13  1  0  0  0
 13 14  2  0  0  0
 13 16  1  0  0  0
 14 15  1  0  0  0
 16 17  2  0  0  0
 16 21  1  0  0  0
 17 18  1  0  0  0
 17 37  1  0  0  0
 18 19  2  0  0  0
 18 38  1  0  0  0
 19 20  1  0  0  0
 19 22  1  0  0  0
 20 21  2  0  0  0
 20 39  1  0  0  0
 21 40  1  0  0  0
M  END
> <s_m_entry_id>
53121

> <s_m_entry_name>
dock_pv.340

> <s_m_Source_Path>
/home/csk/Desktop/cluster/DUD-E-result/hdac8

> <s_m_Source_File>
dock_pv.maegz

> <i_m_Source_File_Index>
340

> <chembl_id>
CHEMBL3585963

> <chembl_pref_name>
None

> <i_lp_mmshare_version>
53161

> <i_f3d_flags>
0

> <r_lp_tautomer_probability>
1

> <s_lp_Force_Field>
OPLS_2005

> <r_lp_Energy>
15.493625

> <b_lp_Chiralities_Consistent>
1

> <s_lp_Variant>
CHEMBL3192_lig735-1

> <s_i_glide_gridfile>
glide-grid_3f07

> <i_i_glide_lignum>
786

> <i_i_glide_rotatable_bonds>
10

> <r_i_docking_score>
-7.00295480695296

> <r_i_glide_ligand_efficiency>
-0.318316127588771

> <r_i_glide_ligand_efficiency_sa>
-0.891934308166653

> <r_i_glide_ligand_efficiency_ln>
-1.71177759380235

> <r_i_glide_gscore>
-7.00295480695296

> <r_i_glide_lipo>
-1.04765479881086

> <r_i_glide_hbond>
-0.23043147109914

> <r_i_glide_metal>
-2.3

> <r_i_glide_rewards>
-1.20144406322951

> <r_i_glide_evdw>
-29.3921718597412

> <r_i_glide_ecoul>
-15.0724868774414

> <r_i_glide_erotb>
1.60705715078981

> <r_i_glide_esite>
-0.1

> <r_i_glide_emodel>
-65.5788709606319

> <r_i_glide_energy>
-44.4646587371826

> <r_i_glide_einternal>
4.07317352294922

> <i_i_glide_confnum>
136

> <i_i_glide_posenum>
391

> <r_i_glide_eff_state_penalty>
0

> <s_user_duplicate_titles>
CHEMBL3192_lig735

> <s_m_subgroup_title>
dock_pv

> <s_m_subgroupid>
dock_pv

> <b_m_subgroup_collapsed>
1

$$$$
CHEMBL3192_lig934
                    3D
 Schrodinger Suite 2021-1.
 49 51  0  0  1  0            999 V2000
  -27.2337   32.1809  -48.3652 C   0  0  0  0  0  0
  -26.2842   31.7516  -49.2865 C   0  0  0  0  0  0
  -24.9814   31.4690  -48.8820 C   0  0  0  0  0  0
  -26.9021   32.3366  -47.0224 C   0  0  0  0  0  0
  -25.5749   32.0780  -46.5757 C   0  0  0  0  0  0
  -24.6077   31.6224  -47.5252 C   0  0  0  0  0  0
  -23.3291   31.3226  -47.1622 N   0  0  0  0  0  0
  -23.0160   31.4733  -45.8536 C   0  0  0  0  0  0
  -23.8398   31.8947  -44.8681 N   0  0  0  0  0  0
  -25.1111   32.2170  -45.2259 C   0  0  0  0  0  0
  -25.9427   32.7144  -44.1931 N   0  0  0  0  0  0
  -26.1193   32.1676  -42.8908 C   0  0  0  0  0  0
  -26.3665   34.1061  -44.4170 C   0  0  0  0  0  0
  -26.7495   32.8822  -41.8576 C   0  0  0  0  0  0
  -26.9809   32.2946  -40.6170 C   0  0  0  0  0  0
  -26.5911   30.9823  -40.3684 C   0  0  0  0  0  0
  -25.9110   30.2786  -41.3715 C   0  0  0  0  0  0
  -25.6991   30.8578  -42.6184 C   0  0  0  0  0  0
  -26.9177   30.4678  -39.1265 O   0  0  0  0  0  0
  -26.6560   29.0977  -38.8213 C   0  0  0  0  0  0
  -27.5491   28.1132  -39.6104 C   0  0  0  0  0  0
  -29.0271   28.1612  -39.1828 C   0  0  0  0  0  0
  -29.3472   27.2774  -37.9479 C   0  0  0  0  0  0
  -30.3495   26.1246  -38.1386 C   0  0  0  0  0  0
  -30.4799   25.2692  -37.1110 N   0  0  0  0  0  0
  -31.0130   26.0685  -39.1809 O   0  0  0  0  0  0
  -31.4136   24.2252  -37.2177 O   0  0  0  0  0  0
  -28.2414   32.3900  -48.6953 H   0  0  0  0  0  0
  -26.5652   31.6374  -50.3236 H   0  0  0  0  0  0
  -24.2460   31.1358  -49.5995 H   0  0  0  0  0  0
  -27.6577   32.6563  -46.3196 H   0  0  0  0  0  0
  -21.9968   31.2464  -45.5714 H   0  0  0  0  0  0
  -26.2277   34.4408  -45.4461 H   0  0  0  0  0  0
  -27.4234   34.2390  -44.1816 H   0  0  0  0  0  0
  -25.7763   34.7837  -43.7976 H   0  0  0  0  0  0
  -27.0781   33.9001  -41.9960 H   0  0  0  0  0  0
  -27.4654   32.8626  -39.8390 H   0  0  0  0  0  0
  -25.5535   29.2742  -41.2101 H   0  0  0  0  0  0
  -25.2115   30.2642  -43.3761 H   0  0  0  0  0  0
  -26.8333   28.9608  -37.7557 H   0  0  0  0  0  0
  -25.5989   28.8910  -38.9684 H   0  0  0  0  0  0
  -27.1616   27.0985  -39.5071 H   0  0  0  0  0  0
  -27.4889   28.3186  -40.6761 H   0  0  0  0  0  0
  -29.6439   27.8957  -40.0354 H   0  0  0  0  0  0
  -29.3071   29.1960  -38.9730 H   0  0  0  0  0  0
  -29.7373   27.9156  -37.1547 H   0  0  0  0  0  0
  -28.4132   26.8690  -37.5811 H   0  0  0  0  0  0
  -29.9687   25.2609  -36.2382 H   0  0  0  0  0  0
  -30.8679   23.4502  -37.4053 H   0  0  0  0  0  0
  1  2  2  0  0  0
  1  4  1  0  0  0
  1 28  1  0  0  0
  2  3  1  0  0  0
  2 29  1  0  0  0
  3  6  2  0  0  0
  3 30  1  0  0  0
  4  5  2  0  0  0
  4 31  1  0  0  0
  5  6  1  0  0  0
  5 10  1  0  0  0
  6  7  1  0  0  0
  7  8  2  0  0  0
  8  9  1  0  0  0
  8 32  1  0  0  0
  9 10  2  0  0  0
 10 11  1  0  0  0
 11 12  1  0  0  0
 11 13  1  0  0  0
 12 14  2  0  0  0
 12 18  1  0  0  0
 13 33  1  0  0  0
 13 34  1  0  0  0
 13 35  1  0  0  0
 14 15  1  0  0  0
 14 36  1  0  0  0
 15 16  2  0  0  0
 15 37  1  0  0  0
 16 17  1  0  0  0
 16 19  1  0  0  0
 17 18  2  0  0  0
 17 38  1  0  0  0
 18 39  1  0  0  0
 19 20  1  0  0  0
 20 21  1  0  0  0
 20 40  1  0  0  0
 20 41  1  0  0  0
 21 22  1  0  0  0
 21 42  1  0  0  0
 21 43  1  0  0  0
 22 23  1  0  0  0
 22 44  1  0  0  0
 22 45  1  0  0  0
 23 24  1  0  0  0
 23 46  1  0  0  0
 23 47  1  0  0  0
 24 25  1  0  0  0
 24 26  2  0  0  0
 25 27  1  0  0  0
 25 48  1  0  0  0
 27 49  1  0  0  0
M  END
> <s_m_entry_id>
53122

> <s_m_entry_name>
dock_pv.341

> <s_m_Source_Path>
/home/csk/Desktop/cluster/DUD-E-result/hdac8

> <s_m_Source_File>
dock_pv.maegz

> <i_m_Source_File_Index>
341

> <chembl_id>
CHEMBL3774858

> <chembl_pref_name>
None

> <i_lp_mmshare_version>
53161

> <i_f3d_flags>
0

> <r_lp_tautomer_probability>
1

> <s_lp_Force_Field>
OPLS_2005

> <r_lp_Energy>
32.870897

> <b_lp_Chiralities_Consistent>
1

> <s_lp_Variant>
CHEMBL3192_lig934-1

> <s_i_glide_gridfile>
glide-grid_3f07

> <i_i_glide_lignum>
995

> <i_i_glide_rotatable_bonds>
10

> <r_i_docking_score>
-6.99421697260903

> <r_i_glide_ligand_efficiency>
-0.259045073059594

> <r_i_glide_ligand_efficiency_sa>
-0.777135218325011

> <r_i_glide_ligand_efficiency_ln>
-1.62813840254473

> <r_i_glide_gscore>
-6.99421697260903

> <r_i_glide_lipo>
-0.828040679883854

> <r_i_glide_hbond>
-0.230956563230333

> <r_i_glide_metal>
-2.3

> <r_i_glide_rewards>
-0.971317359485258

> <r_i_glide_evdw>
-34.5777282714844

> <r_i_glide_ecoul>
-14.1495742797852

> <r_i_glide_erotb>
1.29022553944316

> <r_i_glide_esite>
-0.102805353910746

> <r_i_glide_emodel>
-68.0999296608755

> <r_i_glide_energy>
-48.7273025512695

> <r_i_glide_einternal>
11.7188158035278

> <i_i_glide_confnum>
3

> <i_i_glide_posenum>
322

> <r_i_glide_eff_state_penalty>
0

> <s_user_duplicate_titles>
CHEMBL3192_lig934

> <s_m_subgroup_title>
dock_pv

> <s_m_subgroupid>
dock_pv

> <b_m_subgroup_collapsed>
1

$$$$
CHEMBL3192_lig101
                    3D
 Schrodinger Suite 2021-1.
 48 50  0  0  1  0            999 V2000
  -28.5644   27.1268  -38.5982 C   0  0  0  0  0  0
  -27.0130   32.9983  -43.6723 C   0  0  0  0  0  0
  -26.4925   32.1590  -42.7434 C   0  0  0  0  0  0
  -26.7036   32.1886  -41.3155 C   0  0  0  0  0  0
  -25.7694   31.5042  -40.6315 N   0  0  0  0  0  0
  -27.7116   32.6629  -40.7887 O   0  0  0  0  0  0
  -25.8220   31.1690  -39.2042 C   0  0  0  0  0  0
  -27.0293   30.3069  -38.7965 C   0  0  0  0  0  0
  -27.2282   29.0455  -39.6384 C   0  0  0  0  0  0
  -28.6170   28.4344  -39.4033 C   0  0  0  0  0  0
  -29.9028   26.3905  -38.5778 C   0  0  0  0  0  0
  -30.1970   25.6769  -37.4793 N   0  0  0  0  0  0
  -30.6485   26.4696  -39.5643 O   0  0  0  0  0  0
  -31.4153   24.9899  -37.4376 O   0  0  0  0  0  0
  -28.2277   34.6445  -44.8404 C   0  0  0  0  0  0
  -27.7776   34.2754  -43.5713 C   0  0  0  0  0  0
  -28.0765   35.1081  -42.4836 C   0  0  0  0  0  0
  -28.8513   36.2551  -42.6614 C   0  0  0  0  0  0
  -29.3301   36.5862  -43.9275 C   0  0  0  0  0  0
  -29.0144   35.7836  -45.0221 C   0  0  0  0  0  0
  -26.9615   32.7356  -45.1269 C   0  0  0  0  0  0
  -27.7215   33.6800  -45.8107 C   0  0  0  0  0  0
  -27.8900   33.5960  -47.1941 C   0  0  0  0  0  0
  -27.2789   32.5593  -47.8998 C   0  0  0  0  0  0
  -26.5047   31.6149  -47.2237 C   0  0  0  0  0  0
  -26.3510   31.6965  -45.8401 C   0  0  0  0  0  0
  -27.8389   26.4687  -39.0710 H   0  0  0  0  0  0
  -28.2152   27.3146  -37.5830 H   0  0  0  0  0  0
  -25.9017   31.3217  -43.0794 H   0  0  0  0  0  0
  -24.9344   31.2173  -41.1184 H   0  0  0  0  0  0
  -24.9029   30.6251  -38.9850 H   0  0  0  0  0  0
  -25.8209   32.0639  -38.5936 H   0  0  0  0  0  0
  -26.9672   30.0441  -37.7397 H   0  0  0  0  0  0
  -27.9314   30.9059  -38.8898 H   0  0  0  0  0  0
  -27.1433   29.2862  -40.6983 H   0  0  0  0  0  0
  -26.4231   28.3399  -39.4346 H   0  0  0  0  0  0
  -29.2812   29.1416  -38.9012 H   0  0  0  0  0  0
  -29.0723   28.2761  -40.3795 H   0  0  0  0  0  0
  -29.6468   25.5715  -36.6368 H   0  0  0  0  0  0
  -31.9264   25.4693  -36.7784 H   0  0  0  0  0  0
  -27.6973   34.9136  -41.4944 H   0  0  0  0  0  0
  -29.0680   36.8948  -41.8184 H   0  0  0  0  0  0
  -29.9271   37.4754  -44.0655 H   0  0  0  0  0  0
  -29.3695   36.0624  -46.0030 H   0  0  0  0  0  0
  -28.4900   34.3210  -47.7262 H   0  0  0  0  0  0
  -27.4061   32.4882  -48.9709 H   0  0  0  0  0  0
  -26.0258   30.8207  -47.7746 H   0  0  0  0  0  0
  -25.7633   30.9424  -45.3390 H   0  0  0  0  0  0
  1 10  1  0  0  0
  1 11  1  0  0  0
  1 27  1  0  0  0
  1 28  1  0  0  0
  2 16  1  0  0  0
  2 21  1  0  0  0
  2  3  2  0  0  0
  3  4  1  0  0  0
  3 29  1  0  0  0
  4  6  2  0  0  0
  4  5  1  0  0  0
  5  7  1  0  0  0
  5 30  1  0  0  0
  7  8  1  0  0  0
  7 31  1  0  0  0
  7 32  1  0  0  0
  8  9  1  0  0  0
  8 33  1  0  0  0
  8 34  1  0  0  0
  9 10  1  0  0  0
  9 35  1  0  0  0
  9 36  1  0  0  0
 10 37  1  0  0  0
 10 38  1  0  0  0
 11 12  1  0  0  0
 11 13  2  0  0  0
 12 14  1  0  0  0
 12 39  1  0  0  0
 14 40  1  0  0  0
 15 22  1  0  0  0
 15 16  2  0  0  0
 15 20  1  0  0  0
 16 17  1  0  0  0
 17 18  2  0  0  0
 17 41  1  0  0  0
 18 19  1  0  0  0
 18 42  1  0  0  0
 19 20  2  0  0  0
 19 43  1  0  0  0
 20 44  1  0  0  0
 21 22  2  0  0  0
 21 26  1  0  0  0
 22 23  1  0  0  0
 23 24  2  0  0  0
 23 45  1  0  0  0
 24 25  1  0  0  0
 24 46  1  0  0  0
 25 26  2  0  0  0
 25 47  1  0  0  0
 26 48  1  0  0  0
M  END
> <s_m_entry_id>
53123

> <s_m_entry_name>
dock_pv.342

> <s_m_Source_Path>
/home/csk/Desktop/cluster/DUD-E-result/hdac8

> <s_m_Source_File>
dock_pv.maegz

> <i_m_Source_File_Index>
342

> <chembl_id>
CHEMBL485514

> <chembl_pref_name>
None

> <i_lp_mmshare_version>
53161

> <i_f3d_flags>
0

> <r_lp_tautomer_probability>
1

> <s_lp_Force_Field>
OPLS_2005

> <r_lp_Energy>
44.372805

> <b_lp_Chiralities_Consistent>
1

> <s_lp_Variant>
CHEMBL3192_lig101-1

> <s_i_glide_gridfile>
glide-grid_3f07

> <i_i_glide_lignum>
106

> <i_i_glide_rotatable_bonds>
10

> <r_i_docking_score>
-6.99005037027271

> <r_i_glide_ligand_efficiency>
-0.268848091164335

> <r_i_glide_ligand_efficiency_sa>
-0.796461412208186

> <r_i_glide_ligand_efficiency_ln>
-1.64159039323252

> <r_i_glide_gscore>
-6.99005037027271

> <r_i_glide_lipo>
-0.976254400722969

> <r_i_glide_hbond>
-0.32

> <r_i_glide_metal>
-2.3

> <r_i_glide_rewards>
-1.08656509698883

> <r_i_glide_evdw>
-26.5514888763428

> <r_i_glide_ecoul>
-14.801944732666

> <r_i_glide_erotb>
1.39708206854377

> <r_i_glide_esite>
-0.156446787387641

> <r_i_glide_emodel>
-62.8484454996547

> <r_i_glide_energy>
-41.3534336090088

> <r_i_glide_einternal>
7.6224365234375

> <i_i_glide_confnum>
28

> <i_i_glide_posenum>
327

> <r_i_glide_eff_state_penalty>
0

> <s_user_duplicate_titles>
CHEMBL3192_lig101,500028

> <s_m_subgroup_title>
dock_pv

> <s_m_subgroupid>
dock_pv

> <b_m_subgroup_collapsed>
1

$$$$
CHEMBL3192_lig1085
                    3D
 Schrodinger Suite 2021-1.
 41 43  0  0  1  0            999 V2000
  -30.4077   25.6706  -37.2060 O   0  0  0  0  0  0
  -29.4136   26.6105  -37.5350 N   0  0  0  0  0  0
  -29.4129   27.1443  -38.7593 C   0  0  0  0  0  0
  -30.2641   26.8266  -39.5810 O   0  0  0  0  0  0
  -28.4000   28.2281  -39.0538 C   0  0  0  0  0  0
  -27.1900   28.2499  -38.3807 C   0  0  0  0  0  0
  -26.2583   29.2692  -38.5499 C   0  0  0  0  0  0
  -26.4900   30.2640  -39.4767 C   0  0  0  0  0  0
  -25.4945   31.2451  -39.6587 N   0  0  0  0  0  0
  -25.8042   32.4238  -40.4633 C   0  0  0  0  0  0
  -26.6685   32.0211  -41.6728 C   0  0  1  0  0  0
  -27.9734   31.3678  -41.1809 C   0  0  0  0  0  0
  -27.7012   30.2720  -40.1908 C   0  0  0  0  0  0
  -28.6402   29.2503  -39.9771 C   0  0  0  0  0  0
  -27.0128   33.2723  -42.3765 N   0  0  2  0  0  0
  -25.9655   33.8749  -43.6486 S   0  0  0  0  0  0
  -26.1128   35.3332  -43.6607 O   0  0  0  0  0  0
  -24.6486   33.2450  -43.5000 O   0  0  0  0  0  0
  -26.6944   33.2769  -45.1668 C   0  0  0  0  0  0
  -27.8806   33.8507  -45.6355 C   0  0  0  0  0  0
  -28.4340   33.4251  -46.8430 C   0  0  0  0  0  0
  -27.8038   32.4238  -47.5816 C   0  0  0  0  0  0
  -26.6285   31.8403  -47.1125 C   0  0  0  0  0  0
  -26.0250   30.8690  -47.8331 F   0  0  0  0  0  0
  -26.0727   32.2634  -45.9057 C   0  0  0  0  0  0
  -30.9677   26.1380  -36.5796 H   0  0  0  0  0  0
  -28.8257   26.8685  -36.7476 H   0  0  0  0  0  0
  -27.0048   27.4809  -37.6479 H   0  0  0  0  0  0
  -25.3357   29.2574  -37.9863 H   0  0  0  0  0  0
  -24.8352   31.4261  -38.9126 H   0  0  0  0  0  0
  -26.3192   33.1474  -39.8281 H   0  0  0  0  0  0
  -24.8706   32.9001  -40.7696 H   0  0  0  0  0  0
  -26.1131   31.3397  -42.3212 H   0  0  0  0  0  0
  -28.5080   30.8706  -41.9810 H   0  0  0  0  0  0
  -28.6362   32.1011  -40.7217 H   0  0  0  0  0  0
  -29.5725   29.2711  -40.5254 H   0  0  0  0  0  0
  -27.4507   33.9991  -41.8073 H   0  0  0  0  0  0
  -28.3645   34.6382  -45.0745 H   0  0  0  0  0  0
  -29.3481   33.8710  -47.2101 H   0  0  0  0  0  0
  -28.2207   32.0928  -48.5205 H   0  0  0  0  0  0
  -25.1544   31.8124  -45.5594 H   0  0  0  0  0  0
  1  2  1  0  0  0
  1 26  1  0  0  0
  2  3  1  0  0  0
  2 27  1  0  0  0
  3  4  2  0  0  0
  3  5  1  0  0  0
  5  6  2  0  0  0
  5 14  1  0  0  0
  6  7  1  0  0  0
  6 28  1  0  0  0
  7  8  2  0  0  0
  7 29  1  0  0  0
  8  9  1  0  0  0
  8 13  1  0  0  0
  9 10  1  0  0  0
  9 30  1  0  0  0
 10 11  1  0  0  0
 10 31  1  0  0  0
 10 32  1  0  0  0
 11 12  1  0  0  0
 11 15  1  0  0  0
 11 33  1  0  0  0
 12 13  1  0  0  0
 12 34  1  0  0  0
 12 35  1  0  0  0
 13 14  2  0  0  0
 14 36  1  0  0  0
 15 16  1  0  0  0
 15 37  1  0  0  0
 16 17  2  0  0  0
 16 18  2  0  0  0
 16 19  1  0  0  0
 19 20  2  0  0  0
 19 25  1  0  0  0
 20 21  1  0  0  0
 20 38  1  0  0  0
 21 22  2  0  0  0
 21 39  1  0  0  0
 22 23  1  0  0  0
 22 40  1  0  0  0
 23 24  1  0  0  0
 23 25  2  0  0  0
 25 41  1  0  0  0
M  END
> <s_m_entry_id>
53124

> <s_m_entry_name>
dock_pv.343

> <s_m_Source_Path>
/home/csk/Desktop/cluster/DUD-E-result/hdac8

> <s_m_Source_File>
dock_pv.maegz

> <i_m_Source_File_Index>
343

> <chembl_id>
CHEMBL3694330

> <chembl_pref_name>
None

> <i_lp_mmshare_version>
53161

> <i_f3d_flags>
0

> <r_lp_tautomer_probability>
1

> <s_lp_Force_Field>
OPLS_2005

> <r_lp_Energy>
25.554271

> <b_lp_Chiralities_Consistent>
1

> <s_lp_Variant>
CHEMBL3192_lig1085-2

> <s_i_glide_gridfile>
glide-grid_3f07

> <i_i_glide_lignum>
1210

> <i_i_glide_rotatable_bonds>
6

> <r_i_docking_score>
-6.98961539950447

> <r_i_glide_ligand_efficiency>
-0.279584615980179

> <r_i_glide_ligand_efficiency_sa>
-0.81751037558032

> <r_i_glide_ligand_efficiency_ln>
-1.65674831155355

> <r_i_glide_gscore>
-6.98961539950447

> <r_i_glide_lipo>
-1.29349129895347

> <r_i_glide_hbond>
-0.608

> <r_i_glide_metal>
-1.8910250450117

> <r_i_glide_rewards>
-0.918754344149557

> <r_i_glide_evdw>
-19.5063323974609

> <r_i_glide_ecoul>
-11.9306182861328

> <r_i_glide_erotb>
0.720415211262467

> <r_i_glide_esite>
-0.23385055985924

> <r_i_glide_emodel>
-46.1474112440788

> <r_i_glide_energy>
-31.4369506835938

> <r_i_glide_einternal>
3.00967168807983

> <i_i_glide_confnum>
6

> <i_i_glide_posenum>
239

> <r_i_glide_eff_state_penalty>
0

> <s_user_duplicate_titles>
CHEMBL3192_lig1085

> <s_m_subgroup_title>
dock_pv

> <s_m_subgroupid>
dock_pv

> <b_m_subgroup_collapsed>
1

$$$$
CHEMBL3192_lig213
                    3D
 Schrodinger Suite 2021-1.
 67 68  0  0  1  0            999 V2000
  -28.8359   30.7210  -40.0256 C   0  0  0  0  0  0
  -28.1858   29.6689  -39.3932 C   0  0  0  0  0  0
  -26.7826   29.6682  -39.3397 C   0  0  0  0  0  0
  -28.1076   31.7150  -40.6631 C   0  0  0  0  0  0
  -26.7154   31.6835  -40.6807 C   0  0  0  0  0  0
  -26.0329   30.6758  -39.9706 C   0  0  0  0  0  0
  -24.7770   31.8276  -42.1868 C   0  0  2  0  0  0
  -25.9154   32.6550  -41.5366 C   0  0  0  0  0  0
  -23.8646   31.4616  -41.0531 N   0  0  0  0  0  0
  -24.4932   30.6820  -39.9432 C   0  0  0  0  0  0
  -22.6055   32.0816  -40.8265 C   0  0  0  0  0  0
  -21.9687   31.5638  -39.7314 O   0  0  0  0  0  0
  -20.5907   31.8031  -39.3849 C   0  0  0  0  0  0
  -20.4347   31.1363  -38.0053 C   0  0  0  0  0  0
  -20.2252   33.3055  -39.2761 C   0  0  0  0  0  0
  -19.6658   31.1164  -40.4140 C   0  0  0  0  0  0
  -24.1807   32.4639  -43.4729 C   0  0  0  0  0  0
  -24.6280   33.5171  -43.9284 O   0  0  0  0  0  0
  -23.1868   31.7775  -44.0650 N   0  0  0  0  0  0
  -22.4628   32.2082  -45.2571 C   0  0  0  0  0  0
  -25.2009   30.9167  -42.6128 H   0  0  0  0  0  0
  -29.0129   28.7106  -38.8532 O   0  0  0  0  0  0
  -28.5300   27.4088  -38.5460 C   0  0  0  0  0  0
  -29.7477   26.4689  -38.5713 C   0  0  0  0  0  0
  -30.4929   26.4691  -39.5618 O   0  0  0  0  0  0
  -29.9537   25.6777  -37.5053 N   0  0  0  0  0  0
  -31.0104   24.7536  -37.5484 O   0  0  0  0  0  0
  -22.0782   32.9286  -41.5495 O   0  0  0  0  0  0
  -23.1835   31.8551  -46.5718 C   0  0  0  0  0  0
  -22.4395   32.3244  -47.8388 C   0  0  0  0  0  0
  -21.1093   31.5888  -48.0982 C   0  0  0  0  0  0
  -20.3116   32.1224  -49.3004 C   0  0  0  0  0  0
  -20.9844   31.8835  -50.6587 C   0  0  0  0  0  0
  -29.9152   30.7408  -40.0558 H   0  0  0  0  0  0
  -26.2636   28.8785  -38.8174 H   0  0  0  0  0  0
  -28.6249   32.5050  -41.1809 H   0  0  0  0  0  0
  -26.5669   33.1039  -42.2888 H   0  0  0  0  0  0
  -25.5199   33.4740  -40.9307 H   0  0  0  0  0  0
  -24.2022   31.0973  -38.9754 H   0  0  0  0  0  0
  -24.1080   29.6690  -39.9676 H   0  0  0  0  0  0
  -20.6913   30.0768  -38.0396 H   0  0  0  0  0  0
  -19.4135   31.2149  -37.6322 H   0  0  0  0  0  0
  -21.0909   31.6031  -37.2686 H   0  0  0  0  0  0
  -20.0793   33.7678  -40.2522 H   0  0  0  0  0  0
  -21.0103   33.8716  -38.7805 H   0  0  0  0  0  0
  -19.3037   33.4559  -38.7130 H   0  0  0  0  0  0
  -19.7420   31.5784  -41.3990 H   0  0  0  0  0  0
  -18.6205   31.1675  -40.1089 H   0  0  0  0  0  0
  -19.9239   30.0686  -40.5375 H   0  0  0  0  0  0
  -22.8323   30.9607  -43.5957 H   0  0  0  0  0  0
  -22.2552   33.2799  -45.2206 H   0  0  0  0  0  0
  -21.4766   31.7460  -45.2311 H   0  0  0  0  0  0
  -28.0304   27.4008  -37.5815 H   0  0  0  0  0  0
  -27.8151   27.0511  -39.2893 H   0  0  0  0  0  0
  -29.4090   25.6192  -36.6552 H   0  0  0  0  0  0
  -30.5632   23.8965  -37.5817 H   0  0  0  0  0  0
  -23.3542   30.7794  -46.6213 H   0  0  0  0  0  0
  -24.1720   32.3167  -46.5620 H   0  0  0  0  0  0
  -23.0991   32.1844  -48.6967 H   0  0  0  0  0  0
  -22.2593   33.3991  -47.7741 H   0  0  0  0  0  0
  -20.4685   31.6729  -47.2202 H   0  0  0  0  0  0
  -21.3012   30.5231  -48.2345 H   0  0  0  0  0  0
  -20.1199   33.1892  -49.1687 H   0  0  0  0  0  0
  -19.3310   31.6435  -49.3114 H   0  0  0  0  0  0
  -20.3412   32.2375  -51.4610 H   0  0  0  0  0  0
  -21.1732   30.8235  -50.8275 H   0  0  0  0  0  0
  -21.9326   32.4155  -50.7408 H   0  0  0  0  0  0
  1  4  1  0  0  0
  1  2  2  0  0  0
  1 34  1  0  0  0
  2 22  1  0  0  0
  2  3  1  0  0  0
  3  6  2  0  0  0
  3 35  1  0  0  0
  4  5  2  0  0  0
  4 36  1  0  0  0
  5  6  1  0  0  0
  5  8  1  0  0  0
  6 10  1  0  0  0
  7 17  1  0  0  0
  7  8  1  0  0  0
  7  9  1  0  0  0
  7 21  1  0  0  0
  8 37  1  0  0  0
  8 38  1  0  0  0
  9 10  1  0  0  0
  9 11  1  0  0  0
 10 39  1  0  0  0
 10 40  1  0  0  0
 11 12  1  0  0  0
 11 28  2  0  0  0
 12 13  1  0  0  0
 13 16  1  0  0  0
 13 14  1  0  0  0
 13 15  1  0  0  0
 14 41  1  0  0  0
 14 42  1  0  0  0
 14 43  1  0  0  0
 15 44  1  0  0  0
 15 45  1  0  0  0
 15 46  1  0  0  0
 16 47  1  0  0  0
 16 48  1  0  0  0
 16 49  1  0  0  0
 17 18  2  0  0  0
 17 19  1  0  0  0
 19 20  1  0  0  0
 19 50  1  0  0  0
 20 29  1  0  0  0
 20 51  1  0  0  0
 20 52  1  0  0  0
 22 23  1  0  0  0
 23 24  1  0  0  0
 23 53  1  0  0  0
 23 54  1  0  0  0
 24 25  2  0  0  0
 24 26  1  0  0  0
 26 27  1  0  0  0
 26 55  1  0  0  0
 27 56  1  0  0  0
 29 30  1  0  0  0
 29 57  1  0  0  0
 29 58  1  0  0  0
 30 31  1  0  0  0
 30 59  1  0  0  0
 30 60  1  0  0  0
 31 32  1  0  0  0
 31 61  1  0  0  0
 31 62  1  0  0  0
 32 33  1  0  0  0
 32 63  1  0  0  0
 32 64  1  0  0  0
 33 65  1  0  0  0
 33 66  1  0  0  0
 33 67  1  0  0  0
M  END
> <s_m_entry_id>
53125

> <s_m_entry_name>
dock_pv.344

> <s_m_Source_Path>
/home/csk/Desktop/cluster/DUD-E-result/hdac8

> <s_m_Source_File>
dock_pv.maegz

> <i_m_Source_File_Index>
344

> <chembl_id>
CHEMBL596783

> <chembl_pref_name>
None

> <i_lp_mmshare_version>
53161

> <i_f3d_flags>
0

> <r_lp_tautomer_probability>
1

> <s_lp_Force_Field>
OPLS_2005

> <r_lp_Energy>
41.975721

> <b_lp_Chiralities_Consistent>
1

> <s_lp_Variant>
CHEMBL3192_lig213-1

> <s_i_glide_gridfile>
glide-grid_3f07

> <i_i_glide_lignum>
223

> <i_i_glide_rotatable_bonds>
15

> <r_i_docking_score>
-6.9819603595752

> <r_i_glide_ligand_efficiency>
-0.218186261236725

> <r_i_glide_ligand_efficiency_sa>
-0.692698200424135

> <r_i_glide_ligand_efficiency_ln>
-1.56345124556021

> <r_i_glide_gscore>
-6.9819603595752

> <r_i_glide_lipo>
-1.08266905945425

> <r_i_glide_hbond>
-0.342373586787454

> <r_i_glide_metal>
-2.3

> <r_i_glide_rewards>
-0.481953763729028

> <r_i_glide_evdw>
-31.0504150390625

> <r_i_glide_ecoul>
-14.880931854248

> <r_i_glide_erotb>
1.19008724773744

> <r_i_glide_esite>
-0.180390667251567

> <r_i_glide_emodel>
-61.8987272649609

> <r_i_glide_energy>
-45.9313468933105

> <r_i_glide_einternal>
10.8770017623901

> <i_i_glide_confnum>
14

> <i_i_glide_posenum>
333

> <r_i_glide_eff_state_penalty>
0

> <s_user_duplicate_titles>
CHEMBL3192_lig213

> <s_m_subgroup_title>
dock_pv

> <s_m_subgroupid>
dock_pv

> <b_m_subgroup_collapsed>
1

$$$$
CHEMBL3192_lig734
                    3D
 Schrodinger Suite 2021-1.
 40 41  0  0  1  0            999 V2000
  -26.5035   30.9863  -39.8653 C   0  0  0  0  0  0
  -27.0492   29.5558  -40.0535 C   0  0  0  0  0  0
  -27.9833   29.1164  -38.9128 C   0  0  0  0  0  0
  -28.6425   27.7448  -39.1500 C   0  0  0  0  0  0
  -29.3571   27.2084  -37.8858 C   0  0  0  0  0  0
  -30.3736   26.0825  -38.1214 C   0  0  0  0  0  0
  -30.5248   25.2023  -37.1191 N   0  0  0  0  0  0
  -31.0130   26.0690  -39.1810 O   0  0  0  0  0  0
  -31.4130   24.1328  -37.2909 O   0  0  0  0  0  0
  -25.3459   31.3514  -40.8170 C   0  0  0  0  0  0
  -25.7021   31.2294  -42.2841 C   0  0  0  0  0  0
  -26.2971   32.1061  -43.0451 N   0  0  0  0  0  0
  -26.3549   31.4788  -44.2088 C   0  0  0  0  0  0
  -25.8535   30.2575  -44.2236 N   0  0  0  0  0  0
  -25.4130   30.0690  -42.9173 O   0  0  0  0  0  0
  -26.9678   32.1068  -45.4327 C   0  0  0  0  0  0
  -27.6806   33.3112  -45.3378 C   0  0  0  0  0  0
  -28.2570   33.8847  -46.4688 C   0  0  0  0  0  0
  -28.1190   33.2623  -47.7053 C   0  0  0  0  0  0
  -27.4130   32.0690  -47.8178 C   0  0  0  0  0  0
  -26.8415   31.4925  -46.6870 C   0  0  0  0  0  0
  -28.6714   33.8197  -48.8057 F   0  0  0  0  0  0
  -27.3155   31.7055  -39.9831 H   0  0  0  0  0  0
  -26.1487   31.1076  -38.8398 H   0  0  0  0  0  0
  -26.2130   28.8601  -40.1153 H   0  0  0  0  0  0
  -27.5732   29.4880  -41.0084 H   0  0  0  0  0  0
  -28.7656   29.8655  -38.7810 H   0  0  0  0  0  0
  -27.4146   29.0932  -37.9810 H   0  0  0  0  0  0
  -27.8871   27.0215  -39.4664 H   0  0  0  0  0  0
  -29.3393   27.8520  -39.9810 H   0  0  0  0  0  0
  -29.8566   28.0230  -37.3646 H   0  0  0  0  0  0
  -28.6130   26.8690  -37.1810 H   0  0  0  0  0  0
  -30.0182   25.1653  -36.2444 H   0  0  0  0  0  0
  -30.8334   23.3827  -37.4815 H   0  0  0  0  0  0
  -25.0201   32.3697  -40.5978 H   0  0  0  0  0  0
  -24.4808   30.7256  -40.5926 H   0  0  0  0  0  0
  -27.7959   33.8076  -44.3854 H   0  0  0  0  0  0
  -28.8092   34.8094  -46.3919 H   0  0  0  0  0  0
  -27.3212   31.5897  -48.7811 H   0  0  0  0  0  0
  -26.2977   30.5656  -46.7939 H   0  0  0  0  0  0
  1  2  1  0  0  0
  1 10  1  0  0  0
  1 23  1  0  0  0
  1 24  1  0  0  0
  2  3  1  0  0  0
  2 25  1  0  0  0
  2 26  1  0  0  0
  3  4  1  0  0  0
  3 27  1  0  0  0
  3 28  1  0  0  0
  4  5  1  0  0  0
  4 29  1  0  0  0
  4 30  1  0  0  0
  5  6  1  0  0  0
  5 31  1  0  0  0
  5 32  1  0  0  0
  6  7  1  0  0  0
  6  8  2  0  0  0
  7  9  1  0  0  0
  7 33  1  0  0  0
  9 34  1  0  0  0
 10 11  1  0  0  0
 10 35  1  0  0  0
 10 36  1  0  0  0
 11 12  2  0  0  0
 11 15  1  0  0  0
 12 13  1  0  0  0
 13 14  2  0  0  0
 13 16  1  0  0  0
 14 15  1  0  0  0
 16 17  2  0  0  0
 16 21  1  0  0  0
 17 18  1  0  0  0
 17 37  1  0  0  0
 18 19  2  0  0  0
 18 38  1  0  0  0
 19 20  1  0  0  0
 19 22  1  0  0  0
 20 21  2  0  0  0
 20 39  1  0  0  0
 21 40  1  0  0  0
M  END
> <s_m_entry_id>
53126

> <s_m_entry_name>
dock_pv.345

> <s_m_Source_Path>
/home/csk/Desktop/cluster/DUD-E-result/hdac8

> <s_m_Source_File>
dock_pv.maegz

> <i_m_Source_File_Index>
345

> <chembl_id>
CHEMBL3585962

> <chembl_pref_name>
None

> <i_lp_mmshare_version>
53161

> <i_f3d_flags>
0

> <r_lp_tautomer_probability>
1

> <s_lp_Force_Field>
OPLS_2005

> <r_lp_Energy>
15.623284

> <b_lp_Chiralities_Consistent>
1

> <s_lp_Variant>
CHEMBL3192_lig734-1

> <s_i_glide_gridfile>
glide-grid_3f07

> <i_i_glide_lignum>
785

> <i_i_glide_rotatable_bonds>
10

> <r_i_docking_score>
-6.96567721530564

> <r_i_glide_ligand_efficiency>
-0.316621691604802

> <r_i_glide_ligand_efficiency_sa>
-0.887186431901185

> <r_i_glide_ligand_efficiency_ln>
-1.70266559067055

> <r_i_glide_gscore>
-6.96567721530564

> <r_i_glide_lipo>
-1.03348679523911

> <r_i_glide_hbond>
-0.228730019724766

> <r_i_glide_metal>
-2.3

> <r_i_glide_rewards>
-1.38227578281345

> <r_i_glide_evdw>
-30.4004955291748

> <r_i_glide_ecoul>
-14.4177074432373

> <r_i_glide_erotb>
1.76149627541602

> <r_i_glide_esite>
-0.1

> <r_i_glide_emodel>
-66.9053935876492

> <r_i_glide_energy>
-44.8182029724121

> <r_i_glide_einternal>
3.73247885704041

> <i_i_glide_confnum>
70

> <i_i_glide_posenum>
288

> <r_i_glide_eff_state_penalty>
0

> <s_user_duplicate_titles>
CHEMBL3192_lig734

> <s_m_subgroup_title>
dock_pv

> <s_m_subgroupid>
dock_pv

> <b_m_subgroup_collapsed>
1

$$$$
CHEMBL3192_lig463
                    3D
 Schrodinger Suite 2021-1.
 52 53  0  0  1  0            999 V2000
  -24.4887   30.8038  -45.2064 C   0  0  0  0  0  0
  -25.3528   31.6816  -45.8629 C   0  0  0  0  0  0
  -26.0602   32.6157  -45.1016 C   0  0  0  0  0  0
  -24.3377   30.8588  -43.8254 C   0  0  0  0  0  0
  -25.0484   31.7853  -43.0420 C   0  0  0  0  0  0
  -25.9008   32.6743  -43.7182 C   0  0  0  0  0  0
  -24.8509   31.8368  -41.5608 C   0  0  0  0  0  0
  -25.9277   32.5844  -40.7224 C   0  0  0  0  0  0
  -23.8110   31.2724  -41.0606 N   0  0  0  0  0  0
  -27.3820   32.0569  -40.8915 C   0  0  0  0  0  0
  -27.5936   30.5263  -40.8229 C   0  0  0  0  0  0
  -27.0500   29.8828  -39.5331 C   0  0  0  0  0  0
  -27.4926   28.4263  -39.3041 C   0  0  0  0  0  0
  -29.0127   28.2604  -39.0472 C   0  0  0  0  0  0
  -29.3583   27.2942  -37.8785 C   0  0  0  0  0  0
  -23.5880   31.4462  -39.6780 O   0  0  0  0  0  0
  -25.4963   31.6324  -47.3443 C   0  0  0  0  0  0
  -26.7619   31.6803  -47.9424 C   0  0  0  0  0  0
  -26.8915   31.6319  -49.3284 C   0  0  0  0  0  0
  -25.7549   31.5294  -50.1255 C   0  0  0  0  0  0
  -24.4891   31.4814  -49.5481 C   0  0  0  0  0  0
  -24.3622   31.5355  -48.1624 C   0  0  0  0  0  0
  -30.3347   26.1318  -38.1175 C   0  0  0  0  0  0
  -30.4937   25.2693  -37.0992 N   0  0  0  0  0  0
  -31.4130   24.2176  -37.2448 O   0  0  0  0  0  0
  -30.9565   26.0690  -39.1809 O   0  0  0  0  0  0
  -23.9272   30.0720  -45.7679 H   0  0  0  0  0  0
  -26.7203   33.3214  -45.5859 H   0  0  0  0  0  0
  -23.6510   30.1628  -43.3679 H   0  0  0  0  0  0
  -26.4385   33.4471  -43.1911 H   0  0  0  0  0  0
  -25.8762   33.6528  -40.9350 H   0  0  0  0  0  0
  -25.7209   32.5433  -39.6540 H   0  0  0  0  0  0
  -27.8133   32.4206  -41.8216 H   0  0  0  0  0  0
  -27.9914   32.5153  -40.1115 H   0  0  0  0  0  0
  -27.1366   30.0447  -41.6886 H   0  0  0  0  0  0
  -28.6624   30.3282  -40.9125 H   0  0  0  0  0  0
  -27.3434   30.4799  -38.6685 H   0  0  0  0  0  0
  -25.9598   29.9111  -39.5501 H   0  0  0  0  0  0
  -26.9166   28.0678  -38.4507 H   0  0  0  0  0  0
  -27.1841   27.8000  -40.1426 H   0  0  0  0  0  0
  -29.5016   27.9873  -39.9810 H   0  0  0  0  0  0
  -29.4130   29.2413  -38.7914 H   0  0  0  0  0  0
  -29.7556   27.8754  -37.0439 H   0  0  0  0  0  0
  -28.4250   26.8691  -37.5440 H   0  0  0  0  0  0
  -24.2104   32.1358  -39.4285 H   0  0  0  0  0  0
  -27.6529   31.7488  -47.3346 H   0  0  0  0  0  0
  -27.8710   31.6703  -49.7830 H   0  0  0  0  0  0
  -25.8577   31.4962  -51.2001 H   0  0  0  0  0  0
  -23.6090   31.4127  -50.1707 H   0  0  0  0  0  0
  -23.3747   31.5090  -47.7241 H   0  0  0  0  0  0
  -30.0174   25.2653  -36.2067 H   0  0  0  0  0  0
  -30.8543   23.4494  -37.4224 H   0  0  0  0  0  0
  1  2  2  0  0  0
  1  4  1  0  0  0
  1 27  1  0  0  0
  2  3  1  0  0  0
  2 17  1  0  0  0
  3  6  2  0  0  0
  3 28  1  0  0  0
  4  5  2  0  0  0
  4 29  1  0  0  0
  5  6  1  0  0  0
  5  7  1  0  0  0
  6 30  1  0  0  0
  7  8  1  0  0  0
  7  9  2  0  0  0
  8 10  1  0  0  0
  8 31  1  0  0  0
  8 32  1  0  0  0
  9 16  1  0  0  0
 10 11  1  0  0  0
 10 33  1  0  0  0
 10 34  1  0  0  0
 11 12  1  0  0  0
 11 35  1  0  0  0
 11 36  1  0  0  0
 12 13  1  0  0  0
 12 37  1  0  0  0
 12 38  1  0  0  0
 13 14  1  0  0  0
 13 39  1  0  0  0
 13 40  1  0  0  0
 14 15  1  0  0  0
 14 41  1  0  0  0
 14 42  1  0  0  0
 15 23  1  0  0  0
 15 43  1  0  0  0
 15 44  1  0  0  0
 16 45  1  0  0  0
 17 18  2  0  0  0
 17 22  1  0  0  0
 18 19  1  0  0  0
 18 46  1  0  0  0
 19 20  2  0  0  0
 19 47  1  0  0  0
 20 21  1  0  0  0
 20 48  1  0  0  0
 21 22  2  0  0  0
 21 49  1  0  0  0
 22 50  1  0  0  0
 23 24  1  0  0  0
 23 26  2  0  0  0
 24 25  1  0  0  0
 24 51  1  0  0  0
 25 52  1  0  0  0
M  END
> <s_m_entry_id>
53127

> <s_m_entry_name>
dock_pv.346

> <s_m_Source_Path>
/home/csk/Desktop/cluster/DUD-E-result/hdac8

> <s_m_Source_File>
dock_pv.maegz

> <i_m_Source_File_Index>
346

> <chembl_id>
CHEMBL2235262

> <chembl_pref_name>
None

> <i_lp_mmshare_version>
53161

> <i_f3d_flags>
0

> <r_lp_tautomer_probability>
1

> <s_lp_Force_Field>
OPLS_2005

> <r_lp_Energy>
31.86367

> <b_lp_Chiralities_Consistent>
1

> <s_lp_Variant>
CHEMBL3192_lig463-1

> <s_i_glide_gridfile>
glide-grid_3f07

> <i_i_glide_lignum>
484

> <i_i_glide_rotatable_bonds>
13

> <r_i_docking_score>
-6.94894091936051

> <r_i_glide_ligand_efficiency>
-0.267266958436943

> <r_i_glide_ligand_efficiency_sa>
-0.791777312724743

> <r_i_glide_ligand_efficiency_ln>
-1.6319359735769

> <r_i_glide_gscore>
-6.94894091936051

> <r_i_glide_lipo>
-1.14839348023448

> <r_i_glide_hbond>
-0.233817224537254

> <r_i_glide_metal>
-2.3

> <r_i_glide_rewards>
-1.10296600754265

> <r_i_glide_evdw>
-33.9864883422852

> <r_i_glide_ecoul>
-14.1807794570923

> <r_i_glide_erotb>
1.82524881656438

> <r_i_glide_esite>
-0.16257168793241

> <r_i_glide_emodel>
-67.5004905321078

> <r_i_glide_energy>
-48.1672677993774

> <r_i_glide_einternal>
12.4583702087402

> <i_i_glide_confnum>
382

> <i_i_glide_posenum>
295

> <r_i_glide_eff_state_penalty>
0

> <s_user_duplicate_titles>
CHEMBL3192_lig463

> <s_m_subgroup_title>
dock_pv

> <s_m_subgroupid>
dock_pv

> <b_m_subgroup_collapsed>
1

$$$$
CHEMBL3192_lig1088
                    3D
 Schrodinger Suite 2021-1.
 44 46  0  0  1  0            999 V2000
  -24.0208   31.2690  -39.2118 C   0  0  0  0  0  0
  -25.3127   31.1625  -39.8920 N   0  0  0  0  0  0
  -25.3440   32.0693  -41.0401 C   0  0  0  0  0  0
  -26.3369   31.6711  -42.1410 C   0  0  1  0  0  0
  -27.6837   31.2110  -41.5664 C   0  0  0  0  0  0
  -27.5102   30.2144  -40.4354 C   0  0  0  0  0  0
  -28.5120   29.2651  -40.1530 C   0  0  0  0  0  0
  -28.3597   28.3170  -39.1273 C   0  0  0  0  0  0
  -27.1906   28.3686  -38.3810 C   0  0  0  0  0  0
  -26.2130   29.3152  -38.6221 C   0  0  0  0  0  0
  -26.3368   30.2392  -39.6503 C   0  0  0  0  0  0
  -29.3908   27.2473  -38.8230 C   0  0  0  0  0  0
  -30.2130   26.8690  -39.6521 O   0  0  0  0  0  0
  -29.4130   26.7621  -37.5810 N   0  0  0  0  0  0
  -30.2527   25.6690  -37.2930 O   0  0  0  0  0  0
  -26.5943   32.8158  -43.0597 N   0  0  3  0  0  0
  -26.9277   34.4771  -42.5510 S   0  0  0  0  0  0
  -27.3764   35.1966  -43.7470 O   0  0  0  0  0  0
  -27.7613   34.4466  -41.3422 O   0  0  0  0  0  0
  -25.3234   35.1515  -42.1201 C   0  0  0  0  0  0
  -24.4251   35.4822  -43.1372 C   0  0  0  0  0  0
  -23.1565   35.9572  -42.8129 C   0  0  0  0  0  0
  -22.7875   36.0899  -41.4750 C   0  0  0  0  0  0
  -21.2093   36.6615  -41.0751 Cl  0  0  0  0  0  0
  -23.6814   35.7611  -40.4585 C   0  0  0  0  0  0
  -24.9558   35.3048  -40.7810 C   0  0  0  0  0  0
  -24.0641   30.9343  -38.1768 H   0  0  0  0  0  0
  -23.2678   30.6763  -39.7322 H   0  0  0  0  0  0
  -23.6726   32.3030  -39.1810 H   0  0  0  0  0  0
  -25.9131   32.8659  -40.5660 H   0  0  0  0  0  0
  -24.3995   32.5148  -41.3581 H   0  0  0  0  0  0
  -25.9012   30.8428  -42.7024 H   0  0  0  0  0  0
  -28.2130   30.7392  -42.3807 H   0  0  0  0  0  0
  -28.2755   32.0398  -41.1810 H   0  0  0  0  0  0
  -29.4106   29.2654  -40.7542 H   0  0  0  0  0  0
  -27.0130   27.6574  -37.5881 H   0  0  0  0  0  0
  -25.3244   29.2821  -38.0125 H   0  0  0  0  0  0
  -28.8246   27.0404  -36.7997 H   0  0  0  0  0  0
  -29.6440   24.9300  -37.1810 H   0  0  0  0  0  0
  -26.4694   32.6544  -44.0619 H   0  0  0  0  0  0
  -24.7050   35.3653  -44.1744 H   0  0  0  0  0  0
  -22.4580   36.2126  -43.5962 H   0  0  0  0  0  0
  -23.3918   35.8457  -39.4197 H   0  0  0  0  0  0
  -25.6349   35.0430  -39.9810 H   0  0  0  0  0  0
  1  2  1  0  0  0
  1 27  1  0  0  0
  1 28  1  0  0  0
  1 29  1  0  0  0
  2  3  1  0  0  0
  2 11  1  0  0  0
  3  4  1  0  0  0
  3 30  1  0  0  0
  3 31  1  0  0  0
  4  5  1  0  0  0
  4 16  1  0  0  0
  4 32  1  0  0  0
  5  6  1  0  0  0
  5 33  1  0  0  0
  5 34  1  0  0  0
  6  7  2  0  0  0
  6 11  1  0  0  0
  7  8  1  0  0  0
  7 35  1  0  0  0
  8  9  2  0  0  0
  8 12  1  0  0  0
  9 10  1  0  0  0
  9 36  1  0  0  0
 10 11  2  0  0  0
 10 37  1  0  0  0
 12 13  2  0  0  0
 12 14  1  0  0  0
 14 15  1  0  0  0
 14 38  1  0  0  0
 15 39  1  0  0  0
 16 17  1  0  0  0
 16 40  1  0  0  0
 17 18  2  0  0  0
 17 19  2  0  0  0
 17 20  1  0  0  0
 20 21  2  0  0  0
 20 26  1  0  0  0
 21 22  1  0  0  0
 21 41  1  0  0  0
 22 23  2  0  0  0
 22 42  1  0  0  0
 23 24  1  0  0  0
 23 25  1  0  0  0
 25 26  2  0  0  0
 25 43  1  0  0  0
 26 44  1  0  0  0
M  END
> <s_m_entry_id>
53128

> <s_m_entry_name>
dock_pv.347

> <s_m_Source_Path>
/home/csk/Desktop/cluster/DUD-E-result/hdac8

> <s_m_Source_File>
dock_pv.maegz

> <i_m_Source_File_Index>
347

> <chembl_id>
CHEMBL3694333

> <chembl_pref_name>
None

> <i_lp_mmshare_version>
53161

> <i_f3d_flags>
0

> <r_lp_tautomer_probability>
1

> <s_lp_Force_Field>
OPLS_2005

> <r_lp_Energy>
22.592265

> <b_lp_Chiralities_Consistent>
1

> <s_lp_Variant>
CHEMBL3192_lig1088-2

> <s_i_glide_gridfile>
glide-grid_3f07

> <i_i_glide_lignum>
1216

> <i_i_glide_rotatable_bonds>
6

> <r_i_docking_score>
-6.94849122857363

> <r_i_glide_ligand_efficiency>
-0.267249662637447

> <r_i_glide_ligand_efficiency_sa>
-0.791726073986794

> <r_i_glide_ligand_efficiency_ln>
-1.63183036517116

> <r_i_glide_gscore>
-6.94849122857363

> <r_i_glide_lipo>
-0.927955179463827

> <r_i_glide_hbond>
-0.608

> <r_i_glide_metal>
-1.85997618640204

> <r_i_glide_rewards>
-0.797153874686315

> <r_i_glide_evdw>
-18.0037174224854

> <r_i_glide_ecoul>
-14.6665649414062

> <r_i_glide_erotb>
0.624069539381378

> <r_i_glide_esite>
-0.279304915067621

> <r_i_glide_emodel>
-45.3766255402932

> <r_i_glide_energy>
-32.6702823638916

> <r_i_glide_einternal>
7.51872873306274

> <i_i_glide_confnum>
8

> <i_i_glide_posenum>
31

> <r_i_glide_eff_state_penalty>
0

> <s_user_duplicate_titles>
CHEMBL3192_lig1088

> <s_m_subgroup_title>
dock_pv

> <s_m_subgroupid>
dock_pv

> <b_m_subgroup_collapsed>
1

$$$$
CHEMBL3192_lig543
                    3D
 Schrodinger Suite 2021-1.
 52 54  0  0  1  0            999 V2000
  -29.0130   28.5303  -38.4986 C   0  0  0  0  0  0
  -29.0202   27.1918  -38.6946 C   0  0  0  0  0  0
  -29.9754   26.2956  -38.0920 C   0  0  0  0  0  0
  -30.5701   25.4638  -38.7808 O   0  0  0  0  0  0
  -30.1687   26.4690  -36.7754 N   0  0  0  0  0  0
  -31.0128   25.5765  -36.1067 O   0  0  0  0  0  0
  -26.6744   29.1188  -39.0522 C   0  0  0  0  0  0
  -28.0284   29.4432  -39.0961 C   0  0  0  0  0  0
  -28.4231   30.6479  -39.6879 C   0  0  0  0  0  0
  -25.7131   29.9632  -39.5961 C   0  0  0  0  0  0
  -26.1150   31.1590  -40.1832 C   0  0  0  0  0  0
  -27.4598   31.5068  -40.2257 C   0  0  0  0  0  0
  -27.8751   32.7206  -40.7790 N   0  0  0  0  0  0
  -27.0144   33.5529  -41.2480 C   0  0  0  0  0  0
  -25.6466   33.2722  -41.2677 N   0  0  0  0  0  0
  -25.1036   32.0801  -40.8181 C   0  0  0  0  0  0
  -23.9180   31.7577  -40.9449 O   0  0  0  0  0  0
  -27.5867   34.8642  -41.7991 C   0  0  0  0  0  0
  -27.6100   35.9791  -40.7367 C   0  0  0  0  0  0
  -24.6322   34.2313  -41.7886 C   0  0  0  0  0  0
  -23.7764   34.9048  -40.6814 C   0  0  0  0  0  0
  -22.5135   35.6224  -41.1551 C   0  0  0  0  0  0
  -21.5849   36.0156  -40.1896 C   0  0  0  0  0  0
  -20.3969   36.6323  -40.5697 C   0  0  0  0  0  0
  -20.1161   36.8611  -41.9148 C   0  0  0  0  0  0
  -21.0584   36.4852  -42.8847 C   0  0  0  0  0  0
  -22.2523   35.8767  -42.5061 C   0  0  0  0  0  0
  -18.8989   37.4493  -42.1973 O   0  0  0  0  0  0
  -18.4929   37.5860  -43.5516 C   0  0  0  0  0  0
  -29.7331   28.9999  -37.8408 H   0  0  0  0  0  0
  -28.2928   26.7160  -39.3396 H   0  0  0  0  0  0
  -29.6519   27.0870  -36.1565 H   0  0  0  0  0  0
  -30.4080   25.0138  -35.6136 H   0  0  0  0  0  0
  -26.3638   28.1999  -38.5817 H   0  0  0  0  0  0
  -29.4672   30.9154  -39.7258 H   0  0  0  0  0  0
  -24.6700   29.6748  -39.5500 H   0  0  0  0  0  0
  -27.0749   35.1876  -42.7038 H   0  0  0  0  0  0
  -28.6076   34.6981  -42.1439 H   0  0  0  0  0  0
  -28.0605   36.8910  -41.1336 H   0  0  0  0  0  0
  -28.1854   35.6877  -39.8563 H   0  0  0  0  0  0
  -26.6120   36.2405  -40.3923 H   0  0  0  0  0  0
  -23.9794   33.6900  -42.4777 H   0  0  0  0  0  0
  -25.0943   35.0219  -42.3761 H   0  0  0  0  0  0
  -24.3767   35.6268  -40.1257 H   0  0  0  0  0  0
  -23.4449   34.1513  -39.9625 H   0  0  0  0  0  0
  -21.7758   35.8198  -39.1426 H   0  0  0  0  0  0
  -19.6804   36.9210  -39.8142 H   0  0  0  0  0  0
  -20.8791   36.6565  -43.9338 H   0  0  0  0  0  0
  -22.9547   35.5920  -43.2763 H   0  0  0  0  0  0
  -17.5127   38.0627  -43.5848 H   0  0  0  0  0  0
  -18.4022   36.6156  -44.0417 H   0  0  0  0  0  0
  -19.1818   38.2074  -44.1227 H   0  0  0  0  0  0
  1  2  2  0  0  0
  1  8  1  0  0  0
  1 30  1  0  0  0
  2  3  1  0  0  0
  2 31  1  0  0  0
  3  4  2  0  0  0
  3  5  1  0  0  0
  5  6  1  0  0  0
  5 32  1  0  0  0
  6 33  1  0  0  0
  7  8  2  0  0  0
  7 10  1  0  0  0
  7 34  1  0  0  0
  8  9  1  0  0  0
  9 12  2  0  0  0
  9 35  1  0  0  0
 10 11  2  0  0  0
 10 36  1  0  0  0
 11 12  1  0  0  0
 11 16  1  0  0  0
 12 13  1  0  0  0
 13 14  2  0  0  0
 14 15  1  0  0  0
 14 18  1  0  0  0
 15 16  1  0  0  0
 15 20  1  0  0  0
 16 17  2  0  0  0
 18 19  1  0  0  0
 18 37  1  0  0  0
 18 38  1  0  0  0
 19 39  1  0  0  0
 19 40  1  0  0  0
 19 41  1  0  0  0
 20 21  1  0  0  0
 20 42  1  0  0  0
 20 43  1  0  0  0
 21 22  1  0  0  0
 21 44  1  0  0  0
 21 45  1  0  0  0
 22 23  2  0  0  0
 22 27  1  0  0  0
 23 24  1  0  0  0
 23 46  1  0  0  0
 24 25  2  0  0  0
 24 47  1  0  0  0
 25 26  1  0  0  0
 25 28  1  0  0  0
 26 27  2  0  0  0
 26 48  1  0  0  0
 27 49  1  0  0  0
 28 29  1  0  0  0
 29 50  1  0  0  0
 29 51  1  0  0  0
 29 52  1  0  0  0
M  END
> <s_m_entry_id>
53129

> <s_m_entry_name>
dock_pv.348

> <s_m_Source_Path>
/home/csk/Desktop/cluster/DUD-E-result/hdac8

> <s_m_Source_File>
dock_pv.maegz

> <i_m_Source_File_Index>
348

> <chembl_id>
CHEMBL2425965

> <chembl_pref_name>
None

> <i_lp_mmshare_version>
53161

> <i_f3d_flags>
0

> <r_lp_tautomer_probability>
1

> <s_lp_Force_Field>
OPLS_2005

> <r_lp_Energy>
36.674916

> <b_lp_Chiralities_Consistent>
1

> <s_lp_Variant>
CHEMBL3192_lig543-1

> <s_i_glide_gridfile>
glide-grid_3f07

> <i_i_glide_lignum>
564

> <i_i_glide_rotatable_bonds>
9

> <r_i_docking_score>
-6.9394929781825

> <r_i_glide_ligand_efficiency>
-0.239292861316638

> <r_i_glide_ligand_efficiency_sa>
-0.735183483264424

> <r_i_glide_ligand_efficiency_ln>
-1.588967921645

> <r_i_glide_gscore>
-6.9394929781825

> <r_i_glide_lipo>
-0.679598799460871

> <r_i_glide_hbond>
-0.32

> <r_i_glide_metal>
-2.3

> <r_i_glide_rewards>
-0.912964672368992

> <r_i_glide_evdw>
-29.8534698486328

> <r_i_glide_ecoul>
-12.1022291183472

> <r_i_glide_erotb>
0.757204110325938

> <r_i_glide_esite>
-0.176125756494863

> <r_i_glide_emodel>
-58.0705935890138

> <r_i_glide_energy>
-41.95569896698

> <r_i_glide_einternal>
10.7450609207153

> <i_i_glide_confnum>
15

> <i_i_glide_posenum>
197

> <r_i_glide_eff_state_penalty>
0

> <s_user_duplicate_titles>
CHEMBL3192_lig543

> <s_m_subgroup_title>
dock_pv

> <s_m_subgroupid>
dock_pv

> <b_m_subgroup_collapsed>
1

$$$$
CHEMBL3192_lig1005
                    3D
 Schrodinger Suite 2021-1.
 36 37  0  0  1  0            999 V2000
  -22.9596   31.8877  -45.1290 C   0  0  0  0  0  0
  -23.8128   30.8692  -45.5443 C   0  0  0  0  0  0
  -24.9926   30.6047  -44.8547 C   0  0  0  0  0  0
  -25.3334   31.3828  -43.7520 C   0  0  0  0  0  0
  -24.4971   32.4307  -43.3429 C   0  0  0  0  0  0
  -23.3031   32.6669  -44.0274 C   0  0  0  0  0  0
  -24.7963   33.2599  -42.2507 N   0  0  0  0  0  0
  -26.3573   33.2977  -41.4129 S   0  0  0  0  0  0
  -26.3660   31.8265  -40.3972 C   0  0  0  0  0  0
  -27.4276   30.9101  -40.4102 C   0  0  0  0  0  0
  -27.3905   29.7658  -39.5956 C   0  0  0  0  0  0
  -26.2691   29.5676  -38.7807 C   0  0  0  0  0  0
  -25.2088   30.4690  -38.7775 C   0  0  0  0  0  0
  -25.2600   31.6003  -39.5810 C   0  0  0  0  0  0
  -27.4130   33.1917  -42.4213 O   0  0  0  0  0  0
  -26.3169   34.4479  -40.5069 O   0  0  0  0  0  0
  -28.5086   28.7917  -39.6165 C   0  0  0  0  0  0
  -28.6722   27.7355  -38.7810 C   0  0  0  0  0  0
  -29.7705   26.8041  -38.8998 C   0  0  0  0  0  0
  -30.6130   26.8690  -39.8081 O   0  0  0  0  0  0
  -29.8131   25.8605  -37.9496 N   0  0  0  0  0  0
  -30.8025   24.8690  -38.0401 O   0  0  0  0  0  0
  -22.0391   32.0766  -45.6627 H   0  0  0  0  0  0
  -23.5564   30.2834  -46.4127 H   0  0  0  0  0  0
  -25.6443   29.8067  -45.1794 H   0  0  0  0  0  0
  -26.2516   31.1597  -43.2322 H   0  0  0  0  0  0
  -22.6409   33.4621  -43.7160 H   0  0  0  0  0  0
  -24.0781   33.8730  -41.8966 H   0  0  0  0  0  0
  -28.2750   31.0888  -41.0567 H   0  0  0  0  0  0
  -26.1941   28.7005  -38.1448 H   0  0  0  0  0  0
  -24.3489   30.2959  -38.1465 H   0  0  0  0  0  0
  -24.4421   32.3084  -39.5591 H   0  0  0  0  0  0
  -29.2387   28.9587  -40.3973 H   0  0  0  0  0  0
  -27.9740   27.5376  -37.9810 H   0  0  0  0  0  0
  -29.2139   25.7641  -37.1405 H   0  0  0  0  0  0
  -30.3119   24.0340  -37.9810 H   0  0  0  0  0  0
  1  6  1  0  0  0
  1  2  2  0  0  0
  1 23  1  0  0  0
  2  3  1  0  0  0
  2 24  1  0  0  0
  3  4  2  0  0  0
  3 25  1  0  0  0
  4  5  1  0  0  0
  4 26  1  0  0  0
  5  6  2  0  0  0
  5  7  1  0  0  0
  6 27  1  0  0  0
  7  8  1  0  0  0
  7 28  1  0  0  0
  8 15  2  0  0  0
  8 16  2  0  0  0
  8  9  1  0  0  0
  9 14  1  0  0  0
  9 10  2  0  0  0
 10 11  1  0  0  0
 10 29  1  0  0  0
 11 12  2  0  0  0
 11 17  1  0  0  0
 12 13  1  0  0  0
 12 30  1  0  0  0
 13 14  2  0  0  0
 13 31  1  0  0  0
 14 32  1  0  0  0
 17 18  2  0  0  0
 17 33  1  0  0  0
 18 19  1  0  0  0
 18 34  1  0  0  0
 19 20  2  0  0  0
 19 21  1  0  0  0
 21 22  1  0  0  0
 21 35  1  0  0  0
 22 36  1  0  0  0
M  END
> <s_m_entry_id>
53130

> <s_m_entry_name>
dock_pv.349

> <s_m_Source_Path>
/home/csk/Desktop/cluster/DUD-E-result/hdac8

> <s_m_Source_File>
dock_pv.maegz

> <i_m_Source_File_Index>
349

> <chembl_id>
CHEMBL408513

> <chembl_pref_name>
BELINOSTAT

> <i_lp_mmshare_version>
53161

> <i_f3d_flags>
0

> <r_lp_tautomer_probability>
1

> <s_lp_Force_Field>
OPLS_2005

> <r_lp_Energy>
15.659538

> <b_lp_Chiralities_Consistent>
1

> <s_lp_Variant>
CHEMBL3192_lig1005-1

> <s_i_glide_gridfile>
glide-grid_3f07

> <i_i_glide_lignum>
1067

> <i_i_glide_rotatable_bonds>
7

> <r_i_docking_score>
-6.93366549999694

> <r_i_glide_ligand_efficiency>
-0.315166613636225

> <r_i_glide_ligand_efficiency_sa>
-0.883109246208262

> <r_i_glide_ligand_efficiency_ln>
-1.69484075979342

> <r_i_glide_gscore>
-6.93366549999694

> <r_i_glide_lipo>
-1.05061576907614

> <r_i_glide_hbond>
-0.304

> <r_i_glide_metal>
-2.3

> <r_i_glide_rewards>
-0.681548431177311

> <r_i_glide_evdw>
-20.7934875488281

> <r_i_glide_ecoul>
-15.6621866226196

> <r_i_glide_erotb>
1.10376324055132

> <r_i_glide_esite>
-0.312262169460454

> <r_i_glide_emodel>
-56.9790293348643

> <r_i_glide_energy>
-36.4556741714478

> <r_i_glide_einternal>
2.622154712677

> <i_i_glide_confnum>
100

> <i_i_glide_posenum>
10

> <r_i_glide_eff_state_penalty>
0

> <s_user_duplicate_titles>
CHEMBL3192_lig1005

> <s_m_subgroup_title>
dock_pv

> <s_m_subgroupid>
dock_pv

> <b_m_subgroup_collapsed>
1

$$$$
CHEMBL3192_lig860
                    3D
 Schrodinger Suite 2021-1.
 44 45  0  0  1  0            999 V2000
  -25.1392   31.2577  -38.7116 C   0  0  0  0  0  0
  -25.5882   30.7505  -39.9964 N   0  0  0  0  0  0
  -26.7811   30.1007  -40.2513 C   0  0  0  0  0  0
  -27.8446   29.9250  -39.1734 C   0  0  0  0  0  0
  -28.8735   28.7940  -39.3863 C   0  0  0  0  0  0
  -28.4540   27.4242  -38.7812 C   0  0  0  0  0  0
  -29.6475   26.5530  -38.3613 C   0  0  0  0  0  0
  -30.4240   26.0692  -39.1810 O   0  0  0  0  0  0
  -29.8130   26.4714  -37.0114 O   0  0  0  0  0  0
  -26.9352   29.7933  -41.5177 N   0  0  0  0  0  0
  -25.8345   30.3159  -42.1443 C   0  0  0  0  0  0
  -25.5115   30.3209  -43.5089 C   0  0  0  0  0  0
  -24.3451   30.9778  -43.9370 C   0  0  0  0  0  0
  -23.5128   31.5779  -42.9757 C   0  0  0  0  0  0
  -23.7928   31.5745  -41.6086 C   0  0  0  0  0  0
  -24.9704   30.9376  -41.2151 C   0  0  0  0  0  0
  -24.0125   31.0385  -45.3178 N   0  0  0  0  0  0
  -22.6185   31.2676  -45.7355 C   0  0  0  0  0  0
  -22.2435   32.7356  -46.0079 C   0  0  0  0  0  0
  -22.6808   33.2185  -47.6696 Cl  0  0  0  0  0  0
  -25.0631   31.0760  -46.3478 C   0  0  0  0  0  0
  -25.8241   32.4151  -46.4611 C   0  0  0  0  0  0
  -27.0629   32.6178  -45.1939 Cl  0  0  0  0  0  0
  -24.1167   31.6291  -38.7814 H   0  0  0  0  0  0
  -25.8059   32.0608  -38.3946 H   0  0  0  0  0  0
  -25.1623   30.4508  -37.9811 H   0  0  0  0  0  0
  -28.3866   30.8683  -39.1047 H   0  0  0  0  0  0
  -27.3904   29.7999  -38.1911 H   0  0  0  0  0  0
  -29.1089   28.6856  -40.4427 H   0  0  0  0  0  0
  -29.8059   29.1543  -38.9489 H   0  0  0  0  0  0
  -27.7996   27.5665  -37.9226 H   0  0  0  0  0  0
  -27.8449   26.8706  -39.4981 H   0  0  0  0  0  0
  -29.1587   26.9782  -36.5115 H   0  0  0  0  0  0
  -26.1766   29.8444  -44.2085 H   0  0  0  0  0  0
  -22.6179   32.0973  -43.2800 H   0  0  0  0  0  0
  -23.1373   32.0603  -40.8995 H   0  0  0  0  0  0
  -21.9528   30.8701  -44.9683 H   0  0  0  0  0  0
  -22.3949   30.6698  -46.6194 H   0  0  0  0  0  0
  -22.7261   33.4218  -45.3114 H   0  0  0  0  0  0
  -21.1659   32.8729  -45.9159 H   0  0  0  0  0  0
  -24.5953   30.8690  -47.3112 H   0  0  0  0  0  0
  -25.7757   30.2641  -46.2129 H   0  0  0  0  0  0
  -25.1546   33.2720  -46.4035 H   0  0  0  0  0  0
  -26.3441   32.4719  -47.4174 H   0  0  0  0  0  0
  1  2  1  0  0  0
  1 24  1  0  0  0
  1 25  1  0  0  0
  1 26  1  0  0  0
  2  3  1  0  0  0
  2 16  1  0  0  0
  3  4  1  0  0  0
  3 10  2  0  0  0
  4  5  1  0  0  0
  4 27  1  0  0  0
  4 28  1  0  0  0
  5  6  1  0  0  0
  5 29  1  0  0  0
  5 30  1  0  0  0
  6  7  1  0  0  0
  6 31  1  0  0  0
  6 32  1  0  0  0
  7  8  2  0  0  0
  7  9  1  0  0  0
  9 33  1  0  0  0
 10 11  1  0  0  0
 11 12  2  0  0  0
 11 16  1  0  0  0
 12 13  1  0  0  0
 12 34  1  0  0  0
 13 14  2  0  0  0
 13 17  1  0  0  0
 14 15  1  0  0  0
 14 35  1  0  0  0
 15 16  2  0  0  0
 15 36  1  0  0  0
 17 18  1  0  0  0
 17 21  1  0  0  0
 18 19  1  0  0  0
 18 37  1  0  0  0
 18 38  1  0  0  0
 19 20  1  0  0  0
 19 39  1  0  0  0
 19 40  1  0  0  0
 21 22  1  0  0  0
 21 41  1  0  0  0
 21 42  1  0  0  0
 22 23  1  0  0  0
 22 43  1  0  0  0
 22 44  1  0  0  0
M  END
> <s_m_entry_id>
53131

> <s_m_entry_name>
dock_pv.350

> <s_m_Source_Path>
/home/csk/Desktop/cluster/DUD-E-result/hdac8

> <s_m_Source_File>
dock_pv.maegz

> <i_m_Source_File_Index>
350

> <chembl_id>
CHEMBL487253

> <chembl_pref_name>
BENDAMUSTINE

> <i_lp_mmshare_version>
53161

> <i_f3d_flags>
0

> <r_lp_tautomer_probability>
1

> <s_lp_Force_Field>
OPLS_2005

> <r_lp_Energy>
15.076689

> <b_lp_Chiralities_Consistent>
1

> <s_lp_Variant>
CHEMBL3192_lig860-1

> <s_i_glide_gridfile>
glide-grid_3f07

> <i_i_glide_lignum>
918

> <i_i_glide_rotatable_bonds>
10

> <r_i_docking_score>
-6.93277223584837

> <r_i_glide_ligand_efficiency>
-0.301424879819495

> <r_i_glide_ligand_efficiency_sa>
-0.857212261728459

> <r_i_glide_ligand_efficiency_ln>
-1.67640718953121

> <r_i_glide_gscore>
-6.93277223584837

> <r_i_glide_lipo>
-0.829240636119352

> <r_i_glide_hbond>
-0.192223052559667

> <r_i_glide_metal>
-2.3

> <r_i_glide_rewards>
-1.05943910524288

> <r_i_glide_evdw>
-25.55588722229

> <r_i_glide_ecoul>
-14.7911510467529

> <r_i_glide_erotb>
1.04459757620096

> <r_i_glide_esite>
-0.1

> <r_i_glide_emodel>
-56.2307832359366

> <r_i_glide_energy>
-40.347038269043

> <r_i_glide_einternal>
10.3667135238647

> <i_i_glide_confnum>
51

> <i_i_glide_posenum>
260

> <r_i_glide_eff_state_penalty>
0

> <s_user_duplicate_titles>
CHEMBL3192_lig860

> <s_m_subgroup_title>
dock_pv

> <s_m_subgroupid>
dock_pv

> <b_m_subgroup_collapsed>
1

$$$$
CHEMBL3192_lig947
                    3D
 Schrodinger Suite 2021-1.
 59 61  0  0  1  0            999 V2000
  -25.1739   30.1292  -44.4079 C   0  0  0  0  0  0
  -26.2123   30.6698  -45.1596 C   0  0  0  0  0  0
  -26.2888   32.0400  -45.3858 C   0  0  0  0  0  0
  -24.2050   30.9558  -43.8443 C   0  0  0  0  0  0
  -24.2775   32.3693  -44.0105 C   0  0  0  0  0  0
  -25.3239   32.9075  -44.8248 C   0  0  0  0  0  0
  -25.4316   34.2414  -45.0735 N   0  0  0  0  0  0
  -24.4954   35.0392  -44.5103 C   0  0  0  0  0  0
  -23.4828   34.6560  -43.7037 N   0  0  0  0  0  0
  -23.3810   33.3280  -43.4227 C   0  0  0  0  0  0
  -22.3783   32.9575  -42.4842 N   0  0  0  0  0  0
  -22.5960   32.2689  -41.2537 C   0  0  0  0  0  0
  -21.0875   33.6507  -42.6422 C   0  0  0  0  0  0
  -23.8935   31.9093  -40.8639 C   0  0  0  0  0  0
  -24.1580   31.1512  -39.7122 C   0  0  0  0  0  0
  -23.1053   30.8776  -38.8277 C   0  0  0  0  0  0
  -21.8033   31.2690  -39.1800 C   0  0  0  0  0  0
  -21.5524   31.9271  -40.3810 C   0  0  0  0  0  0
  -25.4103   30.6484  -39.3931 O   0  0  0  0  0  0
  -26.4992   30.7412  -40.3168 C   0  0  0  0  0  0
  -27.2689   29.4172  -40.3591 C   0  0  0  0  0  0
  -27.8571   28.9651  -39.0148 C   0  0  0  0  0  0
  -28.6632   27.6708  -39.1831 C   0  0  0  0  0  0
  -29.3564   27.1999  -37.8897 C   0  0  0  0  0  0
  -30.3823   26.0823  -38.1142 C   0  0  0  0  0  0
  -30.5358   25.2055  -37.1098 N   0  0  0  0  0  0
  -31.0130   26.0690  -39.1810 O   0  0  0  0  0  0
  -31.4130   24.1285  -37.2860 O   0  0  0  0  0  0
  -23.4130   30.2520  -37.6320 O   0  0  0  0  0  0
  -22.4426   30.2552  -36.5897 C   0  0  0  0  0  0
  -24.5949   36.5235  -44.7973 C   0  0  0  0  0  0
  -25.1215   29.0599  -44.2609 H   0  0  0  0  0  0
  -26.9668   30.0242  -45.5810 H   0  0  0  0  0  0
  -27.0885   32.4504  -45.9859 H   0  0  0  0  0  0
  -23.4042   30.5246  -43.2618 H   0  0  0  0  0  0
  -20.9716   34.0804  -43.6388 H   0  0  0  0  0  0
  -21.0023   34.4707  -41.9276 H   0  0  0  0  0  0
  -20.2434   32.9731  -42.5166 H   0  0  0  0  0  0
  -24.7100   32.2404  -41.4760 H   0  0  0  0  0  0
  -20.9653   31.0668  -38.5319 H   0  0  0  0  0  0
  -20.5280   32.1837  -40.5966 H   0  0  0  0  0  0
  -26.2096   30.9212  -41.3494 H   0  0  0  0  0  0
  -27.1505   31.5638  -40.0192 H   0  0  0  0  0  0
  -26.6129   28.6375  -40.7471 H   0  0  0  0  0  0
  -28.0729   29.5168  -41.0901 H   0  0  0  0  0  0
  -28.5022   29.7511  -38.6225 H   0  0  0  0  0  0
  -27.0602   28.8174  -38.2832 H   0  0  0  0  0  0
  -28.0039   26.8804  -39.5500 H   0  0  0  0  0  0
  -29.4026   27.8497  -39.9652 H   0  0  0  0  0  0
  -29.8362   28.0414  -37.3949 H   0  0  0  0  0  0
  -28.6130   26.8690  -37.1810 H   0  0  0  0  0  0
  -30.0275   25.1690  -36.2359 H   0  0  0  0  0  0
  -30.8261   23.3829  -37.4713 H   0  0  0  0  0  0
  -22.8746   29.8249  -35.6885 H   0  0  0  0  0  0
  -21.5615   29.6690  -36.8467 H   0  0  0  0  0  0
  -22.1237   31.2690  -36.3490 H   0  0  0  0  0  0
  -25.4512   36.7641  -45.4288 H   0  0  0  0  0  0
  -24.6933   37.0800  -43.8649 H   0  0  0  0  0  0
  -23.6916   36.8689  -45.3005 H   0  0  0  0  0  0
  1  2  2  0  0  0
  1  4  1  0  0  0
  1 32  1  0  0  0
  2  3  1  0  0  0
  2 33  1  0  0  0
  3  6  2  0  0  0
  3 34  1  0  0  0
  4  5  2  0  0  0
  4 35  1  0  0  0
  5  6  1  0  0  0
  5 10  1  0  0  0
  6  7  1  0  0  0
  7  8  2  0  0  0
  8  9  1  0  0  0
  8 31  1  0  0  0
  9 10  2  0  0  0
 10 11  1  0  0  0
 11 12  1  0  0  0
 11 13  1  0  0  0
 12 14  2  0  0  0
 12 18  1  0  0  0
 13 36  1  0  0  0
 13 37  1  0  0  0
 13 38  1  0  0  0
 14 15  1  0  0  0
 14 39  1  0  0  0
 15 16  2  0  0  0
 15 19  1  0  0  0
 16 17  1  0  0  0
 16 29  1  0  0  0
 17 18  2  0  0  0
 17 40  1  0  0  0
 18 41  1  0  0  0
 19 20  1  0  0  0
 20 21  1  0  0  0
 20 42  1  0  0  0
 20 43  1  0  0  0
 21 22  1  0  0  0
 21 44  1  0  0  0
 21 45  1  0  0  0
 22 23  1  0  0  0
 22 46  1  0  0  0
 22 47  1  0  0  0
 23 24  1  0  0  0
 23 48  1  0  0  0
 23 49  1  0  0  0
 24 25  1  0  0  0
 24 50  1  0  0  0
 24 51  1  0  0  0
 25 26  1  0  0  0
 25 27  2  0  0  0
 26 28  1  0  0  0
 26 52  1  0  0  0
 28 53  1  0  0  0
 29 30  1  0  0  0
 30 54  1  0  0  0
 30 55  1  0  0  0
 30 56  1  0  0  0
 31 57  1  0  0  0
 31 58  1  0  0  0
 31 59  1  0  0  0
M  END
> <s_m_entry_id>
53132

> <s_m_entry_name>
dock_pv.351

> <s_m_Source_Path>
/home/csk/Desktop/cluster/DUD-E-result/hdac8

> <s_m_Source_File>
dock_pv.maegz

> <i_m_Source_File_Index>
351

> <chembl_id>
CHEMBL3774890

> <chembl_pref_name>
None

> <i_lp_mmshare_version>
53161

> <i_f3d_flags>
0

> <r_lp_tautomer_probability>
1

> <s_lp_Force_Field>
OPLS_2005

> <r_lp_Energy>
38.118612

> <b_lp_Chiralities_Consistent>
1

> <s_lp_Variant>
CHEMBL3192_lig947-1

> <s_i_glide_gridfile>
glide-grid_3f07

> <i_i_glide_lignum>
1008

> <i_i_glide_rotatable_bonds>
12

> <r_i_docking_score>
-6.93269355414439

> <r_i_glide_ligand_efficiency>
-0.223635275940142

> <r_i_glide_ligand_efficiency_sa>
-0.702523528226419

> <r_i_glide_ligand_efficiency_ln>
-1.56353485800133

> <r_i_glide_gscore>
-6.93269355414439

> <r_i_glide_lipo>
-1.17597978700726

> <r_i_glide_hbond>
-0.228695450790871

> <r_i_glide_metal>
-2.3

> <r_i_glide_rewards>
-0.623344049522447

> <r_i_glide_evdw>
-35.4581108093262

> <r_i_glide_ecoul>
-12.2145528793335

> <r_i_glide_erotb>
1.10041420554252

> <r_i_glide_esite>
-0.1

> <r_i_glide_emodel>
-69.7550557503531

> <r_i_glide_energy>
-47.6726636886597

> <r_i_glide_einternal>
4.0714635848999

> <i_i_glide_confnum>
99

> <i_i_glide_posenum>
54

> <r_i_glide_eff_state_penalty>
0

> <s_user_duplicate_titles>
CHEMBL3192_lig947

> <s_m_subgroup_title>
dock_pv

> <s_m_subgroupid>
dock_pv

> <b_m_subgroup_collapsed>
1

$$$$
CHEMBL3192_lig426
                    3D
 Schrodinger Suite 2021-1.
 38 39  0  0  1  0            999 V2000
  -21.3245   31.6512  -43.0064 C   0  0  0  0  0  0
  -20.3638   31.2610  -42.0687 C   0  0  0  0  0  0
  -20.6701   31.2822  -40.7051 C   0  0  0  0  0  0
  -21.9280   31.6971  -40.2789 C   0  0  0  0  0  0
  -22.8914   32.0761  -41.2155 C   0  0  0  0  0  0
  -22.5872   32.0581  -42.5798 C   0  0  0  0  0  0
  -18.9886   30.7974  -42.5260 C   0  0  0  0  0  0
  -19.0156   29.5462  -43.1808 O   0  0  0  0  0  0
  -24.2454   32.5786  -40.7351 C   0  0  0  0  0  0
  -25.2669   31.4819  -40.4569 C   0  0  0  0  0  0
  -26.2322   31.1638  -41.4137 C   0  0  0  0  0  0
  -27.2079   30.2113  -41.1291 C   0  0  0  0  0  0
  -27.2320   29.5648  -39.8879 C   0  0  0  0  0  0
  -26.2514   29.8793  -38.9395 C   0  0  0  0  0  0
  -25.2812   30.8389  -39.2163 C   0  0  0  0  0  0
  -28.2993   28.5747  -39.6276 C   0  0  0  0  0  0
  -28.4198   27.7452  -38.5669 C   0  0  0  0  0  0
  -29.5328   26.8336  -38.4431 C   0  0  0  0  0  0
  -30.2130   26.4689  -39.4129 O   0  0  0  0  0  0
  -29.8131   26.4686  -37.1822 N   0  0  0  0  0  0
  -30.8584   25.5538  -36.9679 O   0  0  0  0  0  0
  -21.0925   31.6369  -44.0621 H   0  0  0  0  0  0
  -19.9357   30.9824  -39.9715 H   0  0  0  0  0  0
  -22.1509   31.7321  -39.2215 H   0  0  0  0  0  0
  -23.3208   32.3665  -43.3096 H   0  0  0  0  0  0
  -18.5704   31.5347  -43.2117 H   0  0  0  0  0  0
  -18.2966   30.7560  -41.6834 H   0  0  0  0  0  0
  -19.4130   29.6645  -44.0576 H   0  0  0  0  0  0
  -24.6523   33.2878  -41.4575 H   0  0  0  0  0  0
  -24.0954   33.1611  -39.8258 H   0  0  0  0  0  0
  -26.2333   31.6629  -42.3733 H   0  0  0  0  0  0
  -27.9521   29.9874  -41.8799 H   0  0  0  0  0  0
  -26.2381   29.3898  -37.9815 H   0  0  0  0  0  0
  -24.5431   31.0891  -38.4670 H   0  0  0  0  0  0
  -29.0712   28.5452  -40.3813 H   0  0  0  0  0  0
  -27.6952   27.7369  -37.7678 H   0  0  0  0  0  0
  -29.3116   26.7318  -36.3392 H   0  0  0  0  0  0
  -30.4051   24.7271  -36.7723 H   0  0  0  0  0  0
  1  2  2  0  0  0
  1  6  1  0  0  0
  1 22  1  0  0  0
  2  3  1  0  0  0
  2  7  1  0  0  0
  3  4  2  0  0  0
  3 23  1  0  0  0
  4  5  1  0  0  0
  4 24  1  0  0  0
  5  6  2  0  0  0
  5  9  1  0  0  0
  6 25  1  0  0  0
  7  8  1  0  0  0
  7 26  1  0  0  0
  7 27  1  0  0  0
  8 28  1  0  0  0
  9 10  1  0  0  0
  9 29  1  0  0  0
  9 30  1  0  0  0
 10 11  2  0  0  0
 10 15  1  0  0  0
 11 12  1  0  0  0
 11 31  1  0  0  0
 12 13  2  0  0  0
 12 32  1  0  0  0
 13 14  1  0  0  0
 13 16  1  0  0  0
 14 15  2  0  0  0
 14 33  1  0  0  0
 15 34  1  0  0  0
 16 17  2  0  0  0
 16 35  1  0  0  0
 17 18  1  0  0  0
 17 36  1  0  0  0
 18 19  2  0  0  0
 18 20  1  0  0  0
 20 21  1  0  0  0
 20 37  1  0  0  0
 21 38  1  0  0  0
M  END
> <s_m_entry_id>
53133

> <s_m_entry_name>
dock_pv.352

> <s_m_Source_Path>
/home/csk/Desktop/cluster/DUD-E-result/hdac8

> <s_m_Source_File>
dock_pv.maegz

> <i_m_Source_File_Index>
352

> <chembl_id>
CHEMBL2235251

> <chembl_pref_name>
None

> <i_lp_mmshare_version>
53161

> <i_f3d_flags>
0

> <r_lp_tautomer_probability>
1

> <s_lp_Force_Field>
OPLS_2005

> <r_lp_Energy>
24.873915

> <b_lp_Chiralities_Consistent>
1

> <s_lp_Variant>
CHEMBL3192_lig426-1

> <s_i_glide_gridfile>
glide-grid_3f07

> <i_i_glide_lignum>
445

> <i_i_glide_rotatable_bonds>
8

> <r_i_docking_score>
-6.93118941309962

> <r_i_glide_ligand_efficiency>
-0.330056638719029

> <r_i_glide_ligand_efficiency_sa>
-0.910601239212904

> <r_i_glide_ligand_efficiency_ln>
-1.71372257660191

> <r_i_glide_gscore>
-6.93118941309962

> <r_i_glide_lipo>
-0.882971980344212

> <r_i_glide_hbond>
-0.853199613363915

> <r_i_glide_metal>
-2.3

> <r_i_glide_rewards>
-1.66624716711485

> <r_i_glide_evdw>
-24.950496673584

> <r_i_glide_ecoul>
-16.8195381164551

> <r_i_glide_erotb>
2.70709734295216

> <r_i_glide_esite>
-0.165412444081338

> <r_i_glide_emodel>
-63.3414187320653

> <r_i_glide_energy>
-41.7700347900391

> <r_i_glide_einternal>
2.30596661567688

> <i_i_glide_confnum>
27

> <i_i_glide_posenum>
243

> <r_i_glide_eff_state_penalty>
0

> <s_user_duplicate_titles>
CHEMBL3192_lig426

> <s_m_subgroup_title>
dock_pv

> <s_m_subgroupid>
dock_pv

> <b_m_subgroup_collapsed>
1

$$$$
CHEMBL3192_lig793
                    3D
 Schrodinger Suite 2021-1.
 61 64  0  0  1  0            999 V2000
  -31.1887   24.6696  -36.9011 O   0  0  0  0  0  0
  -30.2128   25.6699  -37.0528 N   0  0  0  0  0  0
  -30.1181   26.2923  -38.2391 C   0  0  0  0  0  0
  -30.8848   26.0690  -39.1808 O   0  0  0  0  0  0
  -29.0614   27.2779  -38.3377 C   0  0  0  0  0  0
  -29.0130   28.2100  -39.3169 C   0  0  0  0  0  0
  -27.9923   29.2650  -39.4914 C   0  0  0  0  0  0
  -26.7787   29.2691  -38.7840 C   0  0  0  0  0  0
  -25.8264   30.2692  -38.9969 C   0  0  0  0  0  0
  -26.1061   31.2823  -39.9097 C   0  0  0  0  0  0
  -25.4057   32.3816  -40.3810 N   0  0  0  0  0  0
  -23.9591   32.5577  -40.5376 C   0  0  0  0  0  0
  -23.3875   32.7919  -41.9609 C   0  0  0  0  0  0
  -23.4635   31.6864  -42.9289 N   0  0  0  0  0  0
  -24.8235   31.2620  -43.2970 C   0  0  0  0  0  0
  -24.8294   30.1966  -44.4172 C   0  0  0  0  0  0
  -24.0638   30.6278  -45.5362 O   0  0  0  0  0  0
  -22.7211   30.9404  -45.1804 C   0  0  0  0  0  0
  -22.6911   32.0569  -44.1243 C   0  0  0  0  0  0
  -26.2706   33.3345  -41.0689 C   0  0  2  0  0  0
  -26.6253   34.5642  -40.2043 C   0  0  0  0  0  0
  -27.6223   35.5546  -40.8444 C   0  0  0  0  0  0
  -27.1779   36.0578  -42.2110 C   0  0  0  0  0  0
  -27.7867   35.5680  -43.3711 C   0  0  0  0  0  0
  -27.3576   36.0094  -44.6199 C   0  0  0  0  0  0
  -26.3232   36.9392  -44.7041 C   0  0  0  0  0  0
  -25.7136   37.4320  -43.5518 C   0  0  0  0  0  0
  -26.1434   36.9928  -42.3024 C   0  0  0  0  0  0
  -27.4132   32.4771  -41.3556 N   0  0  0  0  0  0
  -27.3315   31.3452  -40.5467 C   0  0  0  0  0  0
  -28.2580   30.3155  -40.3824 C   0  0  0  0  0  0
  -30.6917   23.8484  -36.9855 H   0  0  0  0  0  0
  -29.6280   25.7918  -36.2369 H   0  0  0  0  0  0
  -28.2992   27.2628  -37.5810 H   0  0  0  0  0  0
  -29.7858   28.2168  -40.0716 H   0  0  0  0  0  0
  -26.5468   28.4805  -38.0848 H   0  0  0  0  0  0
  -24.8826   30.2408  -38.4723 H   0  0  0  0  0  0
  -23.7008   33.4317  -39.9385 H   0  0  0  0  0  0
  -23.4302   31.7306  -40.0636 H   0  0  0  0  0  0
  -23.7806   33.7164  -42.3867 H   0  0  0  0  0  0
  -22.3264   32.9958  -41.8053 H   0  0  0  0  0  0
  -25.3275   30.8514  -42.4271 H   0  0  0  0  0  0
  -25.4062   32.1273  -43.6180 H   0  0  0  0  0  0
  -25.8524   30.0133  -44.7460 H   0  0  0  0  0  0
  -24.4525   29.2435  -44.0480 H   0  0  0  0  0  0
  -22.1814   31.2507  -46.0754 H   0  0  0  0  0  0
  -22.2131   30.0656  -44.7811 H   0  0  0  0  0  0
  -23.0765   32.9851  -44.5513 H   0  0  0  0  0  0
  -21.6556   32.2593  -43.8440 H   0  0  0  0  0  0
  -25.8490   33.6558  -42.0189 H   0  0  0  0  0  0
  -27.0130   34.2413  -39.2365 H   0  0  0  0  0  0
  -25.6995   35.0964  -39.9810 H   0  0  0  0  0  0
  -28.6111   35.1025  -40.9243 H   0  0  0  0  0  0
  -27.7544   36.4147  -40.1851 H   0  0  0  0  0  0
  -28.5816   34.8393  -43.3125 H   0  0  0  0  0  0
  -27.8214   35.6311  -45.5193 H   0  0  0  0  0  0
  -25.9868   37.2797  -45.6726 H   0  0  0  0  0  0
  -24.9075   38.1466  -43.6261 H   0  0  0  0  0  0
  -25.6668   37.3697  -41.4085 H   0  0  0  0  0  0
  -28.2079   33.0736  -41.5124 H   0  0  0  0  0  0
  -29.1905   30.3442  -40.9268 H   0  0  0  0  0  0
  1  2  1  0  0  0
  1 32  1  0  0  0
  2  3  1  0  0  0
  2 33  1  0  0  0
  3  4  2  0  0  0
  3  5  1  0  0  0
  5  6  2  0  0  0
  5 34  1  0  0  0
  6  7  1  0  0  0
  6 35  1  0  0  0
  7  8  2  0  0  0
  7 31  1  0  0  0
  8  9  1  0  0  0
  8 36  1  0  0  0
  9 10  2  0  0  0
  9 37  1  0  0  0
 10 11  1  0  0  0
 10 30  1  0  0  0
 11 12  1  0  0  0
 11 20  1  0  0  0
 12 13  1  0  0  0
 12 38  1  0  0  0
 12 39  1  0  0  0
 13 14  1  0  0  0
 13 40  1  0  0  0
 13 41  1  0  0  0
 14 15  1  0  0  0
 14 19  1  0  0  0
 15 16  1  0  0  0
 15 42  1  0  0  0
 15 43  1  0  0  0
 16 17  1  0  0  0
 16 44  1  0  0  0
 16 45  1  0  0  0
 17 18  1  0  0  0
 18 19  1  0  0  0
 18 46  1  0  0  0
 18 47  1  0  0  0
 19 48  1  0  0  0
 19 49  1  0  0  0
 20 21  1  0  0  0
 20 29  1  0  0  0
 20 50  1  0  0  0
 21 22  1  0  0  0
 21 51  1  0  0  0
 21 52  1  0  0  0
 22 23  1  0  0  0
 22 53  1  0  0  0
 22 54  1  0  0  0
 23 24  2  0  0  0
 23 28  1  0  0  0
 24 25  1  0  0  0
 24 55  1  0  0  0
 25 26  2  0  0  0
 25 56  1  0  0  0
 26 27  1  0  0  0
 26 57  1  0  0  0
 27 28  2  0  0  0
 27 58  1  0  0  0
 28 59  1  0  0  0
 29 30  1  0  0  0
 29 60  1  0  0  0
 30 31  2  0  0  0
 31 61  1  0  0  0
M  END
> <s_m_entry_id>
53134

> <s_m_entry_name>
dock_pv.353

> <s_m_Source_Path>
/home/csk/Desktop/cluster/DUD-E-result/hdac8

> <s_m_Source_File>
dock_pv.maegz

> <i_m_Source_File_Index>
353

> <chembl_id>
CHEMBL3645366

> <chembl_pref_name>
None

> <i_lp_mmshare_version>
53161

> <i_f3d_flags>
0

> <r_lp_tautomer_probability>
1

> <s_lp_Force_Field>
OPLS_2005

> <r_lp_Energy>
58.196549

> <b_lp_Chiralities_Consistent>
1

> <s_lp_Variant>
CHEMBL3192_lig793-1

> <s_i_glide_gridfile>
glide-grid_3f07

> <i_i_glide_lignum>
845

> <i_i_glide_rotatable_bonds>
10

> <r_i_docking_score>
-6.92783843406094

> <r_i_glide_ligand_efficiency>
-0.223478659163256

> <r_i_glide_ligand_efficiency_sa>
-0.702031535314234

> <r_i_glide_ligand_efficiency_ln>
-1.56243987963095

> <r_i_glide_gscore>
-6.92783843406094

> <r_i_glide_lipo>
-1.03231345337558

> <r_i_glide_hbond>
-0.243076734409904

> <r_i_glide_metal>
-2.3

> <r_i_glide_rewards>
-0.732589062846466

> <r_i_glide_evdw>
-36.8189353942871

> <r_i_glide_ecoul>
-10.2377367019653

> <r_i_glide_erotb>
0.998753707564

> <r_i_glide_esite>
-0.242005615983832

> <r_i_glide_emodel>
-67.9276473994826

> <r_i_glide_energy>
-47.0566720962524

> <r_i_glide_einternal>
4.28361129760742

> <i_i_glide_confnum>
11

> <i_i_glide_posenum>
47

> <r_i_glide_eff_state_penalty>
0

> <s_user_duplicate_titles>
CHEMBL3192_lig793

> <s_m_subgroup_title>
dock_pv

> <s_m_subgroupid>
dock_pv

> <b_m_subgroup_collapsed>
1

$$$$
CHEMBL3192_lig938
                    3D
 Schrodinger Suite 2021-1.
 53 55  0  0  1  0            999 V2000
  -24.1594   30.8796  -49.0965 N   0  0  0  0  0  0
  -22.9537   30.8903  -48.4755 C   0  0  0  0  0  0
  -22.7157   31.2690  -47.1939 N   0  0  0  0  0  0
  -23.7828   31.6557  -46.4279 C   0  0  0  0  0  0
  -21.7545   30.4296  -49.2817 C   0  0  0  0  0  0
  -23.5454   32.0462  -45.0783 N   0  0  0  0  0  0
  -24.3136   31.6577  -43.9491 C   0  0  0  0  0  0
  -22.1576   32.4236  -44.7490 C   0  0  0  0  0  0
  -24.3401   32.4291  -42.7761 C   0  0  0  0  0  0
  -25.0691   32.0146  -41.6616 C   0  0  0  0  0  0
  -25.8001   30.8291  -41.6926 C   0  0  0  0  0  0
  -25.7979   30.0690  -42.8718 C   0  0  0  0  0  0
  -25.0532   30.4694  -43.9764 C   0  0  0  0  0  0
  -26.4793   30.4762  -40.5377 O   0  0  0  0  0  0
  -27.2353   29.2690  -40.5364 C   0  0  0  0  0  0
  -27.7982   28.9309  -39.1451 C   0  0  0  0  0  0
  -28.6525   27.6522  -39.2215 C   0  0  0  0  0  0
  -29.3430   27.2162  -37.9126 C   0  0  0  0  0  0
  -30.3781   26.0998  -38.1164 C   0  0  0  0  0  0
  -30.5306   25.2374  -37.0990 N   0  0  0  0  0  0
  -31.0130   26.0690  -39.1810 O   0  0  0  0  0  0
  -31.4130   24.1615  -37.2568 O   0  0  0  0  0  0
  -25.2036   31.2884  -48.3318 C   0  0  0  0  0  0
  -25.0776   31.6689  -46.9910 C   0  0  0  0  0  0
  -26.4186   32.1679  -46.4788 C   0  0  0  0  0  0
  -27.4130   31.6691  -47.5307 C   0  0  0  0  0  0
  -26.6219   31.4580  -48.8224 C   0  0  0  0  0  0
  -21.8747   30.6661  -50.3394 H   0  0  0  0  0  0
  -20.8406   30.9196  -48.9425 H   0  0  0  0  0  0
  -21.6184   29.3531  -49.1812 H   0  0  0  0  0  0
  -21.7061   33.0089  -45.5517 H   0  0  0  0  0  0
  -22.0603   33.0196  -43.8432 H   0  0  0  0  0  0
  -21.5491   31.5280  -44.6142 H   0  0  0  0  0  0
  -23.8031   33.3634  -42.7156 H   0  0  0  0  0  0
  -25.0630   32.6158  -40.7629 H   0  0  0  0  0  0
  -26.3375   29.1433  -42.9458 H   0  0  0  0  0  0
  -25.0500   29.8406  -44.8549 H   0  0  0  0  0  0
  -26.6130   28.4355  -40.8607 H   0  0  0  0  0  0
  -28.0550   29.3690  -41.2507 H   0  0  0  0  0  0
  -28.4000   29.7645  -38.7810 H   0  0  0  0  0  0
  -26.9811   28.7973  -38.4344 H   0  0  0  0  0  0
  -28.0298   26.8298  -39.5810 H   0  0  0  0  0  0
  -29.4125   27.8310  -39.9810 H   0  0  0  0  0  0
  -29.8130   28.0730  -37.4348 H   0  0  0  0  0  0
  -28.6129   26.8690  -37.1975 H   0  0  0  0  0  0
  -30.0225   25.2133  -36.2246 H   0  0  0  0  0  0
  -30.8303   23.4107  -37.4328 H   0  0  0  0  0  0
  -26.7022   31.8154  -45.4891 H   0  0  0  0  0  0
  -26.4244   33.2582  -46.4414 H   0  0  0  0  0  0
  -28.2587   32.3452  -47.6639 H   0  0  0  0  0  0
  -27.8247   30.7126  -47.2035 H   0  0  0  0  0  0
  -26.7061   32.3288  -49.4737 H   0  0  0  0  0  0
  -26.9974   30.5948  -49.3732 H   0  0  0  0  0  0
  1 23  1  0  0  0
  1  2  2  0  0  0
  2  3  1  0  0  0
  2  5  1  0  0  0
  3  4  2  0  0  0
  4 24  1  0  0  0
  4  6  1  0  0  0
  5 28  1  0  0  0
  5 29  1  0  0  0
  5 30  1  0  0  0
  6  7  1  0  0  0
  6  8  1  0  0  0
  7  9  2  0  0  0
  7 13  1  0  0  0
  8 31  1  0  0  0
  8 32  1  0  0  0
  8 33  1  0  0  0
  9 10  1  0  0  0
  9 34  1  0  0  0
 10 11  2  0  0  0
 10 35  1  0  0  0
 11 12  1  0  0  0
 11 14  1  0  0  0
 12 13  2  0  0  0
 12 36  1  0  0  0
 13 37  1  0  0  0
 14 15  1  0  0  0
 15 16  1  0  0  0
 15 38  1  0  0  0
 15 39  1  0  0  0
 16 17  1  0  0  0
 16 40  1  0  0  0
 16 41  1  0  0  0
 17 18  1  0  0  0
 17 42  1  0  0  0
 17 43  1  0  0  0
 18 19  1  0  0  0
 18 44  1  0  0  0
 18 45  1  0  0  0
 19 20  1  0  0  0
 19 21  2  0  0  0
 20 22  1  0  0  0
 20 46  1  0  0  0
 22 47  1  0  0  0
 23 24  2  0  0  0
 23 27  1  0  0  0
 24 25  1  0  0  0
 25 26  1  0  0  0
 25 48  1  0  0  0
 25 49  1  0  0  0
 26 27  1  0  0  0
 26 50  1  0  0  0
 26 51  1  0  0  0
 27 52  1  0  0  0
 27 53  1  0  0  0
M  END
> <s_m_entry_id>
53135

> <s_m_entry_name>
dock_pv.354

> <s_m_Source_Path>
/home/csk/Desktop/cluster/DUD-E-result/hdac8

> <s_m_Source_File>
dock_pv.maegz

> <i_m_Source_File_Index>
354

> <chembl_id>
CHEMBL3774691

> <chembl_pref_name>
None

> <i_lp_mmshare_version>
53161

> <i_f3d_flags>
0

> <r_lp_tautomer_probability>
1

> <s_lp_Force_Field>
OPLS_2005

> <r_lp_Energy>
34.160658

> <b_lp_Chiralities_Consistent>
1

> <s_lp_Variant>
CHEMBL3192_lig938-1

> <s_i_glide_gridfile>
glide-grid_3f07

> <i_i_glide_lignum>
999

> <i_i_glide_rotatable_bonds>
10

> <r_i_docking_score>
-6.92646724951758

> <r_i_glide_ligand_efficiency>
-0.256535824056207

> <r_i_glide_ligand_efficiency_sa>
-0.76960747132312

> <r_i_glide_ligand_efficiency_ln>
-1.61236738395052

> <r_i_glide_gscore>
-6.92646724951758

> <r_i_glide_lipo>
-1.15426905285392

> <r_i_glide_hbond>
-0.229513135139783

> <r_i_glide_metal>
-2.3

> <r_i_glide_rewards>
-0.564031161731916

> <r_i_glide_evdw>
-35.357105255127

> <r_i_glide_ecoul>
-13.8402996063232

> <r_i_glide_erotb>
1.26524630391287

> <r_i_glide_esite>
-0.1

> <r_i_glide_emodel>
-69.4274565161965

> <r_i_glide_energy>
-49.1974048614502

> <r_i_glide_einternal>
6.29097366333008

> <i_i_glide_confnum>
5

> <i_i_glide_posenum>
36

> <r_i_glide_eff_state_penalty>
0

> <s_user_duplicate_titles>
CHEMBL3192_lig938

> <s_m_subgroup_title>
dock_pv

> <s_m_subgroupid>
dock_pv

> <b_m_subgroup_collapsed>
1

$$$$
CHEMBL3192_lig682
                    3D
 Schrodinger Suite 2021-1.
 46 48  0  0  1  0            999 V2000
  -27.4130   28.1828  -38.4580 C   0  0  0  0  0  0
  -28.6621   28.0404  -39.0643 C   0  0  0  0  0  0
  -29.0732   29.0190  -39.9810 C   0  0  0  0  0  0
  -26.5984   29.2690  -38.7712 C   0  0  0  0  0  0
  -27.0248   30.2355  -39.6789 C   0  0  0  0  0  0
  -28.2744   30.1177  -40.2747 C   0  0  0  0  0  0
  -29.5678   26.8690  -38.7449 C   0  0  0  0  0  0
  -29.5731   26.4217  -37.4873 N   0  0  0  0  0  0
  -30.3797   26.4690  -39.5810 O   0  0  0  0  0  0
  -30.3367   25.2742  -37.2007 O   0  0  0  0  0  0
  -26.2151   31.3329  -40.0013 N   0  0  0  0  0  0
  -24.9113   31.0321  -40.6068 C   0  0  2  0  0  0
  -23.8828   32.1366  -40.4235 C   0  0  0  0  0  0
  -23.7476   32.7932  -41.7843 C   0  0  0  0  0  0
  -24.3492   31.8412  -42.7133 N   0  0  0  0  0  0
  -25.0888   30.8690  -42.1289 C   0  0  0  0  0  0
  -25.8131   30.0367  -42.6818 O   0  0  0  0  0  0
  -24.4057   32.1019  -44.1548 C   0  0  0  0  0  0
  -23.7664   30.9831  -45.0060 C   0  0  0  0  0  0
  -23.9323   31.2138  -46.5011 C   0  0  0  0  0  0
  -22.8076   31.3228  -47.3236 C   0  0  0  0  0  0
  -22.9643   31.4905  -48.6972 C   0  0  0  0  0  0
  -24.2448   31.5508  -49.2443 C   0  0  0  0  0  0
  -25.3713   31.4414  -48.4311 C   0  0  0  0  0  0
  -25.2144   31.2691  -47.0582 C   0  0  0  0  0  0
  -27.0505   27.4484  -37.7532 H   0  0  0  0  0  0
  -30.0313   28.9483  -40.4736 H   0  0  0  0  0  0
  -25.6283   29.3587  -38.3055 H   0  0  0  0  0  0
  -28.6158   30.8529  -40.9881 H   0  0  0  0  0  0
  -29.0048   26.7381  -36.7083 H   0  0  0  0  0  0
  -29.6859   24.5633  -37.1616 H   0  0  0  0  0  0
  -26.7059   32.0341  -40.5346 H   0  0  0  0  0  0
  -24.4916   30.0875  -40.2533 H   0  0  0  0  0  0
  -24.1479   32.8626  -39.6523 H   0  0  0  0  0  0
  -22.9280   31.7020  -40.1228 H   0  0  0  0  0  0
  -22.7039   32.9909  -42.0331 H   0  0  0  0  0  0
  -24.2818   33.7442  -41.8146 H   0  0  0  0  0  0
  -25.4559   32.2381  -44.4185 H   0  0  0  0  0  0
  -23.8842   33.0421  -44.3413 H   0  0  0  0  0  0
  -22.7072   30.8921  -44.7584 H   0  0  0  0  0  0
  -24.2252   30.0183  -44.7869 H   0  0  0  0  0  0
  -21.8130   31.2690  -46.9033 H   0  0  0  0  0  0
  -22.0959   31.5748  -49.3345 H   0  0  0  0  0  0
  -24.3650   31.6868  -50.3092 H   0  0  0  0  0  0
  -26.3613   31.4877  -48.8618 H   0  0  0  0  0  0
  -26.0890   31.1702  -46.4312 H   0  0  0  0  0  0
  1  2  2  0  0  0
  1  4  1  0  0  0
  1 26  1  0  0  0
  2  3  1  0  0  0
  2  7  1  0  0  0
  3  6  2  0  0  0
  3 27  1  0  0  0
  4  5  2  0  0  0
  4 28  1  0  0  0
  5  6  1  0  0  0
  5 11  1  0  0  0
  6 29  1  0  0  0
  7  8  1  0  0  0
  7  9  2  0  0  0
  8 10  1  0  0  0
  8 30  1  0  0  0
 10 31  1  0  0  0
 11 12  1  0  0  0
 11 32  1  0  0  0
 12 13  1  0  0  0
 12 16  1  0  0  0
 12 33  1  0  0  0
 13 14  1  0  0  0
 13 34  1  0  0  0
 13 35  1  0  0  0
 14 15  1  0  0  0
 14 36  1  0  0  0
 14 37  1  0  0  0
 15 16  1  0  0  0
 15 18  1  0  0  0
 16 17  2  0  0  0
 18 19  1  0  0  0
 18 38  1  0  0  0
 18 39  1  0  0  0
 19 20  1  0  0  0
 19 40  1  0  0  0
 19 41  1  0  0  0
 20 21  2  0  0  0
 20 25  1  0  0  0
 21 22  1  0  0  0
 21 42  1  0  0  0
 22 23  2  0  0  0
 22 43  1  0  0  0
 23 24  1  0  0  0
 23 44  1  0  0  0
 24 25  2  0  0  0
 24 45  1  0  0  0
 25 46  1  0  0  0
M  END
> <s_m_entry_id>
53136

> <s_m_entry_name>
dock_pv.355

> <s_m_Source_Path>
/home/csk/Desktop/cluster/DUD-E-result/hdac8

> <s_m_Source_File>
dock_pv.maegz

> <i_m_Source_File_Index>
355

> <chembl_id>
CHEMBL3415452

> <chembl_pref_name>
None

> <i_lp_mmshare_version>
53161

> <i_f3d_flags>
0

> <r_lp_tautomer_probability>
1

> <s_lp_Force_Field>
OPLS_2005

> <r_lp_Energy>
37.011459

> <b_lp_Chiralities_Consistent>
1

> <s_lp_Variant>
CHEMBL3192_lig682-1

> <s_i_glide_gridfile>
glide-grid_3f07

> <i_i_glide_lignum>
714

> <i_i_glide_rotatable_bonds>
8

> <r_i_docking_score>
-6.89967095972186

> <r_i_glide_ligand_efficiency>
-0.275986838388875

> <r_i_glide_ligand_efficiency_sa>
-0.806990410096489

> <r_i_glide_ligand_efficiency_ln>
-1.63542878390772

> <r_i_glide_gscore>
-6.89967095972186

> <r_i_glide_lipo>
-1.08307781545661

> <r_i_glide_hbond>
-0.604479841975681

> <r_i_glide_metal>
-2.3

> <r_i_glide_rewards>
-0.378061709576373

> <r_i_glide_evdw>
-23.9808349609375

> <r_i_glide_ecoul>
-15.1360664367676

> <r_i_glide_erotb>
1.15005518100787

> <r_i_glide_esite>
-0.214655060159065

> <r_i_glide_emodel>
-50.2377201209433

> <r_i_glide_energy>
-39.1169013977051

> <r_i_glide_einternal>
13.0952024459839

> <i_i_glide_confnum>
91

> <i_i_glide_posenum>
355

> <r_i_glide_eff_state_penalty>
0

> <s_user_duplicate_titles>
CHEMBL3192_lig682

> <s_m_subgroup_title>
dock_pv

> <s_m_subgroupid>
dock_pv

> <b_m_subgroup_collapsed>
1

$$$$
CHEMBL3192_lig415
                    3D
 Schrodinger Suite 2021-1.
 35 35  0  0  1  0            999 V2000
  -28.0847   30.2912  -39.8841 C   0  0  0  0  0  0
  -27.2105   31.4815  -40.0094 C   0  0  0  0  0  0
  -25.6927   31.3376  -39.7018 C   0  0  0  0  0  0
  -29.3196   30.3555  -39.8843 O   0  0  0  0  0  0
  -27.4443   29.1099  -39.7657 N   0  0  0  0  0  0
  -27.8130   32.5507  -40.3810 N   0  0  0  0  0  0
  -27.0099   33.7089  -40.4192 O   0  0  0  0  0  0
  -28.0374   27.7864  -39.5810 C   0  0  0  0  0  0
  -28.6446   27.4715  -38.2068 C   0  0  0  0  0  0
  -29.8130   26.4690  -38.1409 C   0  0  0  0  0  0
  -30.3431   26.0690  -39.1810 O   0  0  0  0  0  0
  -30.2130   26.0764  -36.9194 N   0  0  0  0  0  0
  -31.2459   25.1278  -36.8311 O   0  0  0  0  0  0
  -24.7818   31.4669  -40.9228 C   0  0  0  0  0  0
  -25.0642   30.7759  -42.1092 C   0  0  0  0  0  0
  -24.2129   30.8690  -43.2095 C   0  0  0  0  0  0
  -23.0682   31.6689  -43.1333 C   0  0  0  0  0  0
  -22.7808   32.3622  -41.9563 C   0  0  0  0  0  0
  -23.6312   32.2597  -40.8541 C   0  0  0  0  0  0
  -22.2130   31.7618  -44.1985 O   0  0  0  0  0  0
  -24.6130   29.8613  -44.7801 Br  0  0  0  0  0  0
  -25.4130   32.0690  -38.9464 H   0  0  0  0  0  0
  -25.4321   30.4022  -39.2078 H   0  0  0  0  0  0
  -26.4352   29.1208  -39.7822 H   0  0  0  0  0  0
  -26.1570   33.4082  -40.0889 H   0  0  0  0  0  0
  -27.6079   26.9256  -40.0924 H   0  0  0  0  0  0
  -28.9168   27.8752  -40.2157 H   0  0  0  0  0  0
  -28.9722   28.4039  -37.7438 H   0  0  0  0  0  0
  -27.7888   27.2689  -37.5810 H   0  0  0  0  0  0
  -29.8231   26.3388  -36.0223 H   0  0  0  0  0  0
  -30.7878   24.3066  -36.6247 H   0  0  0  0  0  0
  -25.9386   30.1463  -42.1819 H   0  0  0  0  0  0
  -21.8961   32.9778  -41.8851 H   0  0  0  0  0  0
  -23.3890   32.7982  -39.9464 H   0  0  0  0  0  0
  -21.4346   32.2922  -44.0163 H   0  0  0  0  0  0
  1  2  1  0  0  0
  1  4  2  0  0  0
  1  5  1  0  0  0
  2  3  1  0  0  0
  2  6  2  0  0  0
  3 14  1  0  0  0
  3 22  1  0  0  0
  3 23  1  0  0  0
  5  8  1  0  0  0
  5 24  1  0  0  0
  6  7  1  0  0  0
  7 25  1  0  0  0
  8  9  1  0  0  0
  8 26  1  0  0  0
  8 27  1  0  0  0
  9 10  1  0  0  0
  9 28  1  0  0  0
  9 29  1  0  0  0
 10 11  2  0  0  0
 10 12  1  0  0  0
 12 13  1  0  0  0
 12 30  1  0  0  0
 13 31  1  0  0  0
 14 15  1  0  0  0
 14 19  2  0  0  0
 15 16  2  0  0  0
 15 32  1  0  0  0
 16 17  1  0  0  0
 16 21  1  0  0  0
 17 18  2  0  0  0
 17 20  1  0  0  0
 18 19  1  0  0  0
 18 33  1  0  0  0
 19 34  1  0  0  0
 20 35  1  0  0  0
M  END
> <s_m_entry_id>
53137

> <s_m_entry_name>
dock_pv.356

> <s_m_Source_Path>
/home/csk/Desktop/cluster/DUD-E-result/hdac8

> <s_m_Source_File>
dock_pv.maegz

> <i_m_Source_File_Index>
356

> <chembl_id>
CHEMBL2047684

> <chembl_pref_name>
None

> <i_lp_mmshare_version>
53161

> <i_f3d_flags>
0

> <r_lp_tautomer_probability>
0.999999999997365

> <s_lp_Force_Field>
OPLS_2005

> <r_lp_Energy>
21.647138

> <b_lp_Chiralities_Consistent>
1

> <s_lp_Variant>
CHEMBL3192_lig415-1

> <s_i_glide_gridfile>
glide-grid_3f07

> <i_i_glide_lignum>
434

> <i_i_glide_rotatable_bonds>
11

> <r_i_docking_score>
-6.89667244444743

> <r_i_glide_ligand_efficiency>
-0.328412973545116

> <r_i_glide_ligand_efficiency_sa>
-0.90606649163132

> <r_i_glide_ligand_efficiency_ln>
-1.70518832585076

> <r_i_glide_gscore>
-6.89667244444743

> <r_i_glide_lipo>
-0.309235129037522

> <r_i_glide_hbond>
-0.181492253153913

> <r_i_glide_metal>
-2.3

> <r_i_glide_rewards>
-0.953417826792537

> <r_i_glide_evdw>
-32.3178024291992

> <r_i_glide_ecoul>
-17.2235260009766

> <r_i_glide_erotb>
1.33046309694218

> <r_i_glide_esite>
-0.283571310799191

> <r_i_glide_emodel>
-72.8184227587006

> <r_i_glide_energy>
-49.5413284301758

> <r_i_glide_einternal>
8.76872444152832

> <i_i_glide_confnum>
81

> <i_i_glide_posenum>
272

> <r_i_glide_eff_state_penalty>
0

> <s_user_duplicate_titles>
CHEMBL3192_lig415

> <s_m_subgroup_title>
dock_pv

> <s_m_subgroupid>
dock_pv

> <b_m_subgroup_collapsed>
1

$$$$
CHEMBL3192_lig1068
                    3D
 Schrodinger Suite 2021-1.
 45 47  0  0  1  0            999 V2000
  -30.2708   25.6597  -37.2933 O   0  0  0  0  0  0
  -29.4132   26.7378  -37.5809 N   0  0  0  0  0  0
  -29.3944   27.2335  -38.8186 C   0  0  0  0  0  0
  -30.2172   26.8690  -39.6520 O   0  0  0  0  0  0
  -28.3567   28.2974  -39.1120 C   0  0  0  0  0  0
  -27.1800   28.3165  -38.3810 C   0  0  0  0  0  0
  -26.2060   29.2741  -38.5901 C   0  0  0  0  0  0
  -26.3269   30.2267  -39.5842 C   0  0  0  0  0  0
  -25.2217   31.2690  -39.7530 C   0  0  0  0  0  0
  -25.1782   31.8375  -41.1784 C   0  0  0  0  0  0
  -26.5758   32.2784  -41.6342 C   0  0  1  0  0  0
  -27.6033   31.1321  -41.5809 C   0  0  0  0  0  0
  -27.4856   30.2045  -40.3850 C   0  0  0  0  0  0
  -28.5024   29.2665  -40.1163 C   0  0  0  0  0  0
  -27.0472   33.4016  -40.7885 N   0  0  2  0  0  0
  -26.9549   35.0259  -41.4563 S   0  0  0  0  0  0
  -27.3315   35.9474  -40.3810 O   0  0  0  0  0  0
  -25.6688   35.1557  -42.1492 O   0  0  0  0  0  0
  -28.2422   35.1170  -42.7011 C   0  0  0  0  0  0
  -27.9947   34.6710  -44.0025 C   0  0  0  0  0  0
  -28.9973   34.7482  -44.9692 C   0  0  0  0  0  0
  -30.2493   35.2683  -44.6402 C   0  0  0  0  0  0
  -30.5088   35.7220  -43.3405 C   0  0  0  0  0  0
  -29.4906   35.6569  -42.3812 C   0  0  0  0  0  0
  -31.8824   36.2786  -42.9709 C   0  0  0  0  0  0
  -31.7991   37.1690  -41.9811 F   0  0  0  0  0  0
  -32.4692   36.8690  -44.0119 F   0  0  0  0  0  0
  -32.6505   35.2683  -42.5627 F   0  0  0  0  0  0
  -29.6745   24.9107  -37.1810 H   0  0  0  0  0  0
  -28.8227   27.0095  -36.7990 H   0  0  0  0  0  0
  -27.0130   27.5853  -37.6049 H   0  0  0  0  0  0
  -25.3141   29.2646  -37.9810 H   0  0  0  0  0  0
  -25.3975   32.0690  -39.0354 H   0  0  0  0  0  0
  -24.2486   30.8472  -39.4946 H   0  0  0  0  0  0
  -24.4757   32.6721  -41.2206 H   0  0  0  0  0  0
  -24.7971   31.0725  -41.8568 H   0  0  0  0  0  0
  -26.4388   32.6293  -42.6579 H   0  0  0  0  0  0
  -27.4834   30.5257  -42.4785 H   0  0  0  0  0  0
  -28.6130   31.5189  -41.5810 H   0  0  0  0  0  0
  -29.3908   29.2690  -40.7322 H   0  0  0  0  0  0
  -26.6405   33.3679  -39.8478 H   0  0  0  0  0  0
  -27.0261   34.2731  -44.2706 H   0  0  0  0  0  0
  -28.8058   34.4036  -45.9754 H   0  0  0  0  0  0
  -31.0154   35.3119  -45.4019 H   0  0  0  0  0  0
  -29.6686   36.0266  -41.3813 H   0  0  0  0  0  0
  1  2  1  0  0  0
  1 29  1  0  0  0
  2  3  1  0  0  0
  2 30  1  0  0  0
  3  4  2  0  0  0
  3  5  1  0  0  0
  5  6  2  0  0  0
  5 14  1  0  0  0
  6  7  1  0  0  0
  6 31  1  0  0  0
  7  8  2  0  0  0
  7 32  1  0  0  0
  8  9  1  0  0  0
  8 13  1  0  0  0
  9 10  1  0  0  0
  9 33  1  0  0  0
  9 34  1  0  0  0
 10 11  1  0  0  0
 10 35  1  0  0  0
 10 36  1  0  0  0
 11 12  1  0  0  0
 11 15  1  0  0  0
 11 37  1  0  0  0
 12 13  1  0  0  0
 12 38  1  0  0  0
 12 39  1  0  0  0
 13 14  2  0  0  0
 14 40  1  0  0  0
 15 16  1  0  0  0
 15 41  1  0  0  0
 16 17  2  0  0  0
 16 18  2  0  0  0
 16 19  1  0  0  0
 19 20  2  0  0  0
 19 24  1  0  0  0
 20 21  1  0  0  0
 20 42  1  0  0  0
 21 22  2  0  0  0
 21 43  1  0  0  0
 22 23  1  0  0  0
 22 44  1  0  0  0
 23 24  2  0  0  0
 23 25  1  0  0  0
 24 45  1  0  0  0
 25 26  1  0  0  0
 25 27  1  0  0  0
 25 28  1  0  0  0
M  END
> <s_m_entry_id>
53138

> <s_m_entry_name>
dock_pv.357

> <s_m_Source_Path>
/home/csk/Desktop/cluster/DUD-E-result/hdac8

> <s_m_Source_File>
dock_pv.maegz

> <i_m_Source_File_Index>
357

> <chembl_id>
CHEMBL3694313

> <chembl_pref_name>
None

> <i_lp_mmshare_version>
53161

> <i_f3d_flags>
0

> <r_lp_tautomer_probability>
1

> <s_lp_Force_Field>
OPLS_2005

> <r_lp_Energy>
28.334437

> <b_lp_Chiralities_Consistent>
1

> <s_lp_Variant>
CHEMBL3192_lig1068-2

> <s_i_glide_gridfile>
glide-grid_3f07

> <i_i_glide_lignum>
1176

> <i_i_glide_rotatable_bonds>
7

> <r_i_docking_score>
-6.88093243534723

> <r_i_glide_ligand_efficiency>
-0.245747586976687

> <r_i_glide_ligand_efficiency_sa>
-0.746234411649594

> <r_i_glide_ligand_efficiency_ln>
-1.58832123903332

> <r_i_glide_gscore>
-6.88093243534723

> <r_i_glide_lipo>
-0.89383752949307

> <r_i_glide_hbond>
-0.608

> <r_i_glide_metal>
-1.86409151683718

> <r_i_glide_rewards>
-0.821336042277216

> <r_i_glide_evdw>
-21.1865978240967

> <r_i_glide_ecoul>
-12.9762144088745

> <r_i_glide_erotb>
0.574666368346684

> <r_i_glide_esite>
-0.262571662550439

> <r_i_glide_emodel>
-50.7136729929974

> <r_i_glide_energy>
-34.1628122329712

> <r_i_glide_einternal>
5.04326725006104

> <i_i_glide_confnum>
75

> <i_i_glide_posenum>
236

> <r_i_glide_eff_state_penalty>
0

> <s_user_duplicate_titles>
CHEMBL3192_lig1068

> <s_m_subgroup_title>
dock_pv

> <s_m_subgroupid>
dock_pv

> <b_m_subgroup_collapsed>
1

$$$$
CHEMBL3192_lig450
                    3D
 Schrodinger Suite 2021-1.
 45 46  0  0  1  0            999 V2000
  -19.6656   32.5548  -43.4258 O   0  0  0  0  0  0
  -20.2794   32.1862  -42.1461 S   0  0  0  0  0  0
  -20.2941   33.1285  -41.0220 O   0  0  0  0  0  0
  -18.6134   28.4815  -42.1617 C   0  0  0  0  0  0
  -18.2104   28.3234  -40.8374 C   0  0  0  0  0  0
  -18.4345   29.3324  -39.9015 C   0  0  0  0  0  0
  -19.2496   29.6575  -42.5526 C   0  0  0  0  0  0
  -19.4824   30.6683  -41.6176 C   0  0  0  0  0  0
  -19.0774   30.5061  -40.2898 C   0  0  0  0  0  0
  -21.9595   31.7590  -42.5369 N   0  0  0  0  0  0
  -22.9983   31.5670  -41.6109 C   0  0  0  0  0  0
  -22.7866   31.4993  -40.2297 C   0  0  0  0  0  0
  -23.8546   31.2622  -39.3684 C   0  0  0  0  0  0
  -25.1437   31.0873  -39.8753 C   0  0  0  0  0  0
  -25.3578   31.1467  -41.2537 C   0  0  0  0  0  0
  -24.2885   31.3845  -42.1152 C   0  0  0  0  0  0
  -26.3185   30.8865  -38.9267 C   0  0  0  0  0  0
  -26.7104   29.4268  -38.7384 C   0  0  0  0  0  0
  -27.8367   28.7966  -39.1471 C   0  0  0  0  0  0
  -28.0234   27.3010  -38.8357 C   0  0  0  0  0  0
  -29.4481   26.8422  -38.4762 C   0  0  0  0  0  0
  -29.8126   26.8692  -37.1822 N   0  0  0  0  0  0
  -31.1118   26.4684  -36.8277 O   0  0  0  0  0  0
  -30.2133   26.4722  -39.3746 O   0  0  0  0  0  0
  -28.9291   29.4936  -39.9582 C   0  0  0  0  0  0
  -18.4336   27.6958  -42.8811 H   0  0  0  0  0  0
  -17.7194   27.4090  -40.5349 H   0  0  0  0  0  0
  -18.1160   29.2021  -38.8774 H   0  0  0  0  0  0
  -19.5546   29.7866  -43.5792 H   0  0  0  0  0  0
  -19.2489   31.2866  -39.5621 H   0  0  0  0  0  0
  -22.1720   31.6656  -43.5173 H   0  0  0  0  0  0
  -21.8053   31.6246  -39.8008 H   0  0  0  0  0  0
  -23.6754   31.2317  -38.3036 H   0  0  0  0  0  0
  -26.3513   31.0176  -41.6574 H   0  0  0  0  0  0
  -24.4704   31.4275  -43.1790 H   0  0  0  0  0  0
  -27.1526   31.4934  -39.2695 H   0  0  0  0  0  0
  -26.0665   31.2926  -37.9457 H   0  0  0  0  0  0
  -25.9695   28.8585  -38.1970 H   0  0  0  0  0  0
  -27.3589   27.0106  -38.0255 H   0  0  0  0  0  0
  -27.6891   26.7312  -39.7026 H   0  0  0  0  0  0
  -29.2554   27.2038  -36.3956 H   0  0  0  0  0  0
  -31.5562   27.2979  -36.6221 H   0  0  0  0  0  0
  -29.7819   29.7314  -39.3247 H   0  0  0  0  0  0
  -28.5950   30.4246  -40.4112 H   0  0  0  0  0  0
  -29.2698   28.8691  -40.7802 H   0  0  0  0  0  0
  1  2  2  0  0  0
  2  3  2  0  0  0
  2  8  1  0  0  0
  2 10  1  0  0  0
  4  5  2  0  0  0
  4  7  1  0  0  0
  4 26  1  0  0  0
  5  6  1  0  0  0
  5 27  1  0  0  0
  6  9  2  0  0  0
  6 28  1  0  0  0
  7  8  2  0  0  0
  7 29  1  0  0  0
  8  9  1  0  0  0
  9 30  1  0  0  0
 10 11  1  0  0  0
 10 31  1  0  0  0
 11 12  2  0  0  0
 11 16  1  0  0  0
 12 13  1  0  0  0
 12 32  1  0  0  0
 13 14  2  0  0  0
 13 33  1  0  0  0
 14 15  1  0  0  0
 14 17  1  0  0  0
 15 16  2  0  0  0
 15 34  1  0  0  0
 16 35  1  0  0  0
 17 18  1  0  0  0
 17 36  1  0  0  0
 17 37  1  0  0  0
 18 19  2  0  0  0
 18 38  1  0  0  0
 19 20  1  0  0  0
 19 25  1  0  0  0
 20 21  1  0  0  0
 20 39  1  0  0  0
 20 40  1  0  0  0
 21 22  1  0  0  0
 21 24  2  0  0  0
 22 23  1  0  0  0
 22 41  1  0  0  0
 23 42  1  0  0  0
 25 43  1  0  0  0
 25 44  1  0  0  0
 25 45  1  0  0  0
M  END
> <s_m_entry_id>
53139

> <s_m_entry_name>
dock_pv.358

> <s_m_Source_Path>
/home/csk/Desktop/cluster/DUD-E-result/hdac8

> <s_m_Source_File>
dock_pv.maegz

> <i_m_Source_File_Index>
358

> <chembl_id>
CHEMBL2235660

> <chembl_pref_name>
None

> <i_lp_mmshare_version>
53161

> <i_f3d_flags>
0

> <r_lp_tautomer_probability>
1

> <s_lp_Force_Field>
OPLS_2005

> <r_lp_Energy>
16.705292

> <b_lp_Chiralities_Consistent>
1

> <s_lp_Variant>
CHEMBL3192_lig450-1

> <s_i_glide_gridfile>
glide-grid_3f07

> <i_i_glide_lignum>
469

> <i_i_glide_rotatable_bonds>
9

> <r_i_docking_score>
-6.86576284465928

> <r_i_glide_ligand_efficiency>
-0.274630513786371

> <r_i_glide_ligand_efficiency_sa>
-0.80302449290425

> <r_i_glide_ligand_efficiency_ln>
-1.62739154449367

> <r_i_glide_gscore>
-6.86576284465928

> <r_i_glide_lipo>
-0.783044762339546

> <r_i_glide_hbond>
-0.607016135863042

> <r_i_glide_metal>
-2.3

> <r_i_glide_rewards>
-0.601310129342032

> <r_i_glide_evdw>
-27.107816696167

> <r_i_glide_ecoul>
-14.7793254852295

> <r_i_glide_erotb>
1.18106816527162

> <r_i_glide_esite>
-0.183170324793509

> <r_i_glide_emodel>
-59.5872070652818

> <r_i_glide_energy>
-41.8871421813965

> <r_i_glide_einternal>
6.02150630950928

> <i_i_glide_confnum>
62

> <i_i_glide_posenum>
388

> <r_i_glide_eff_state_penalty>
0

> <s_user_duplicate_titles>
CHEMBL3192_lig450

> <s_m_subgroup_title>
dock_pv

> <s_m_subgroupid>
dock_pv

> <b_m_subgroup_collapsed>
1

$$$$
CHEMBL3192_lig922
                    3D
 Schrodinger Suite 2021-1.
 50 51  0  0  1  0            999 V2000
  -30.0456   26.3336  -38.1137 C   0  0  0  0  0  0
  -29.1154   27.5590  -38.0365 C   0  0  0  0  0  0
  -28.8436   28.2052  -39.4180 C   0  0  0  0  0  0
  -28.1974   29.5988  -39.4039 C   0  0  0  0  0  0
  -26.7124   29.5861  -39.0076 C   0  0  0  0  0  0
  -26.0291   30.9534  -39.1967 C   0  0  0  0  0  0
  -24.5168   30.8402  -39.4561 C   0  0  0  0  0  0
  -30.6135   26.0690  -39.1810 O   0  0  0  0  0  0
  -30.2129   25.6123  -36.9941 N   0  0  0  0  0  0
  -31.0313   24.4722  -37.0586 O   0  0  0  0  0  0
  -23.9392   32.0693  -39.9813 N   0  0  0  0  0  0
  -25.2076   30.4690  -42.4398 N   0  0  0  0  0  0
  -25.4628   30.2867  -43.7098 C   0  0  0  0  0  0
  -25.0248   31.3045  -44.5287 N   0  0  0  0  0  0
  -24.4194   32.2192  -43.6887 C   0  0  0  0  0  0
  -23.8428   33.3864  -43.9913 N   0  0  0  0  0  0
  -23.3425   34.0397  -42.9091 C   0  0  0  0  0  0
  -23.3732   33.6159  -41.6190 N   0  0  0  0  0  0
  -23.9514   32.4199  -41.3412 C   0  0  0  0  0  0
  -24.5258   31.6608  -42.3906 C   0  0  0  0  0  0
  -25.1824   31.3776  -45.9774 C   0  0  0  0  0  0
  -26.6648   31.5277  -46.4044 C   0  0  0  0  0  0
  -26.7773   31.5564  -47.9390 C   0  0  0  0  0  0
  -27.3550   32.7593  -45.7828 C   0  0  0  0  0  0
  -22.5908   35.5623  -43.2072 Cl  0  0  0  0  0  0
  -28.1685   27.2686  -37.5818 H   0  0  0  0  0  0
  -29.5787   28.2855  -37.3667 H   0  0  0  0  0  0
  -29.7719   28.3042  -39.9812 H   0  0  0  0  0  0
  -28.2061   27.5261  -39.9846 H   0  0  0  0  0  0
  -28.7689   30.2843  -38.7803 H   0  0  0  0  0  0
  -28.2749   30.0037  -40.4150 H   0  0  0  0  0  0
  -26.2126   28.8480  -39.6350 H   0  0  0  0  0  0
  -26.5909   29.2408  -37.9810 H   0  0  0  0  0  0
  -26.2126   31.6019  -38.3395 H   0  0  0  0  0  0
  -26.4823   31.4658  -40.0478 H   0  0  0  0  0  0
  -24.3154   30.0329  -40.1583 H   0  0  0  0  0  0
  -23.9878   30.5276  -38.5551 H   0  0  0  0  0  0
  -29.7883   25.7561  -36.0865 H   0  0  0  0  0  0
  -30.4064   23.7452  -37.1782 H   0  0  0  0  0  0
  -23.6261   32.7746  -39.3221 H   0  0  0  0  0  0
  -25.9753   29.4382  -44.1385 H   0  0  0  0  0  0
  -24.7492   30.4691  -46.3971 H   0  0  0  0  0  0
  -24.5855   32.2110  -46.3532 H   0  0  0  0  0  0
  -27.2091   30.6447  -46.0625 H   0  0  0  0  0  0
  -26.2235   32.3944  -48.3646 H   0  0  0  0  0  0
  -27.8131   31.6559  -48.2606 H   0  0  0  0  0  0
  -26.3884   30.6399  -48.3835 H   0  0  0  0  0  0
  -26.8486   33.6839  -46.0616 H   0  0  0  0  0  0
  -28.3931   32.8367  -46.1104 H   0  0  0  0  0  0
  -27.3682   32.7069  -44.6935 H   0  0  0  0  0  0
  1  2  1  0  0  0
  1  8  2  0  0  0
  1  9  1  0  0  0
  2  3  1  0  0  0
  2 26  1  0  0  0
  2 27  1  0  0  0
  3  4  1  0  0  0
  3 28  1  0  0  0
  3 29  1  0  0  0
  4  5  1  0  0  0
  4 30  1  0  0  0
  4 31  1  0  0  0
  5  6  1  0  0  0
  5 32  1  0  0  0
  5 33  1  0  0  0
  6  7  1  0  0  0
  6 34  1  0  0  0
  6 35  1  0  0  0
  7 11  1  0  0  0
  7 36  1  0  0  0
  7 37  1  0  0  0
  9 10  1  0  0  0
  9 38  1  0  0  0
 10 39  1  0  0  0
 11 19  1  0  0  0
 11 40  1  0  0  0
 12 13  2  0  0  0
 12 20  1  0  0  0
 13 14  1  0  0  0
 13 41  1  0  0  0
 14 15  1  0  0  0
 14 21  1  0  0  0
 15 16  2  0  0  0
 15 20  1  0  0  0
 16 17  1  0  0  0
 17 18  2  0  0  0
 17 25  1  0  0  0
 18 19  1  0  0  0
 19 20  2  0  0  0
 21 22  1  0  0  0
 21 42  1  0  0  0
 21 43  1  0  0  0
 22 23  1  0  0  0
 22 24  1  0  0  0
 22 44  1  0  0  0
 23 45  1  0  0  0
 23 46  1  0  0  0
 23 47  1  0  0  0
 24 48  1  0  0  0
 24 49  1  0  0  0
 24 50  1  0  0  0
M  END
> <s_m_entry_id>
53140

> <s_m_entry_name>
dock_pv.359

> <s_m_Source_Path>
/home/csk/Desktop/cluster/DUD-E-result/hdac8

> <s_m_Source_File>
dock_pv.maegz

> <i_m_Source_File_Index>
359

> <chembl_id>
CHEMBL3763573

> <chembl_pref_name>
None

> <i_lp_mmshare_version>
53161

> <i_f3d_flags>
0

> <r_lp_tautomer_probability>
0.999997216410988

> <s_lp_Force_Field>
OPLS_2005

> <r_lp_Energy>
15.655098

> <b_lp_Chiralities_Consistent>
1

> <s_lp_Variant>
CHEMBL3192_lig922-1

> <s_i_glide_gridfile>
glide-grid_3f07

> <i_i_glide_lignum>
983

> <i_i_glide_rotatable_bonds>
12

> <r_i_docking_score>
-6.85140388204966

> <r_i_glide_ligand_efficiency>
-0.274056155281987

> <r_i_glide_ligand_efficiency_sa>
-0.801345058451138

> <r_i_glide_ligand_efficiency_ln>
-1.62398804005181

> <r_i_glide_gscore>
-6.85140388204966

> <r_i_glide_lipo>
-1.05610198809226

> <r_i_glide_hbond>
-0.232891873259501

> <r_i_glide_metal>
-2.3

> <r_i_glide_rewards>
-0.960458733388223

> <r_i_glide_evdw>
-30.4245014190674

> <r_i_glide_ecoul>
-13.5875377655029

> <r_i_glide_erotb>
1.41663639161984

> <r_i_glide_esite>
-0.159231943150714

> <r_i_glide_emodel>
-61.807024161994

> <r_i_glide_energy>
-44.0120391845703

> <r_i_glide_einternal>
10.982873916626

> <i_i_glide_confnum>
44

> <i_i_glide_posenum>
251

> <r_i_glide_eff_state_penalty>
0

> <s_user_duplicate_titles>
CHEMBL3192_lig922

> <s_m_subgroup_title>
dock_pv

> <s_m_subgroupid>
dock_pv

> <b_m_subgroup_collapsed>
1

$$$$
CHEMBL3192_lig1073
                    3D
 Schrodinger Suite 2021-1.
 41 43  0  0  1  0            999 V2000
  -30.4160   25.8126  -37.2214 O   0  0  0  0  0  0
  -29.5232   26.8620  -37.5168 N   0  0  0  0  0  0
  -29.4130   27.2688  -38.7871 C   0  0  0  0  0  0
  -30.2130   26.8690  -39.6302 O   0  0  0  0  0  0
  -28.3546   28.3066  -39.1059 C   0  0  0  0  0  0
  -27.1760   28.3187  -38.3810 C   0  0  0  0  0  0
  -26.1941   29.2690  -38.5945 C   0  0  0  0  0  0
  -26.2913   30.1984  -39.6093 C   0  0  0  0  0  0
  -25.1431   31.1974  -39.7970 C   0  0  0  0  0  0
  -25.1912   31.8981  -41.1636 C   0  0  0  0  0  0
  -26.6183   32.3636  -41.4712 C   0  0  1  0  0  0
  -27.5895   31.1716  -41.5589 C   0  0  0  0  0  0
  -27.4629   30.1969  -40.3973 C   0  0  0  0  0  0
  -28.4899   29.2690  -40.1197 C   0  0  0  0  0  0
  -27.0885   33.2823  -40.4048 N   0  0  2  0  0  0
  -27.6791   34.8637  -40.8647 S   0  0  0  0  0  0
  -28.6131   34.6781  -41.9810 O   0  0  0  0  0  0
  -28.1149   35.5316  -39.6351 O   0  0  0  0  0  0
  -26.2544   35.7419  -41.4813 C   0  0  0  0  0  0
  -25.0101   35.6208  -40.8529 C   0  0  0  0  0  0
  -23.9150   36.3214  -41.3600 C   0  0  0  0  0  0
  -24.1014   37.1248  -42.4867 C   0  0  0  0  0  0
  -25.3008   37.2536  -43.1109 N   0  0  0  0  0  0
  -26.3570   36.5666  -42.6048 C   0  0  0  0  0  0
  -29.8405   25.0644  -37.0288 H   0  0  0  0  0  0
  -29.0130   27.1915  -36.7015 H   0  0  0  0  0  0
  -27.0130   27.5939  -37.5965 H   0  0  0  0  0  0
  -25.3047   29.2545  -37.9810 H   0  0  0  0  0  0
  -25.1983   31.9401  -39.0002 H   0  0  0  0  0  0
  -24.1797   30.7000  -39.6714 H   0  0  0  0  0  0
  -24.4929   32.7360  -41.1748 H   0  0  0  0  0  0
  -24.8611   31.1990  -41.9336 H   0  0  0  0  0  0
  -26.6430   32.8749  -42.4360 H   0  0  0  0  0  0
  -27.4130   30.6291  -42.4880 H   0  0  0  0  0  0
  -28.6130   31.5179  -41.5810 H   0  0  0  0  0  0
  -29.3858   29.2835  -40.7244 H   0  0  0  0  0  0
  -26.4671   33.3157  -39.5893 H   0  0  0  0  0  0
  -24.8864   34.9938  -39.9810 H   0  0  0  0  0  0
  -22.9471   36.2426  -40.8863 H   0  0  0  0  0  0
  -23.2783   37.6840  -42.9074 H   0  0  0  0  0  0
  -27.2984   36.6916  -43.1205 H   0  0  0  0  0  0
  1  2  1  0  0  0
  1 25  1  0  0  0
  2  3  1  0  0  0
  2 26  1  0  0  0
  3  4  2  0  0  0
  3  5  1  0  0  0
  5  6  2  0  0  0
  5 14  1  0  0  0
  6  7  1  0  0  0
  6 27  1  0  0  0
  7  8  2  0  0  0
  7 28  1  0  0  0
  8  9  1  0  0  0
  8 13  1  0  0  0
  9 10  1  0  0  0
  9 29  1  0  0  0
  9 30  1  0  0  0
 10 11  1  0  0  0
 10 31  1  0  0  0
 10 32  1  0  0  0
 11 12  1  0  0  0
 11 15  1  0  0  0
 11 33  1  0  0  0
 12 13  1  0  0  0
 12 34  1  0  0  0
 12 35  1  0  0  0
 13 14  2  0  0  0
 14 36  1  0  0  0
 15 16  1  0  0  0
 15 37  1  0  0  0
 16 17  2  0  0  0
 16 18  2  0  0  0
 16 19  1  0  0  0
 19 20  2  0  0  0
 19 24  1  0  0  0
 20 21  1  0  0  0
 20 38  1  0  0  0
 21 22  2  0  0  0
 21 39  1  0  0  0
 22 23  1  0  0  0
 22 40  1  0  0  0
 23 24  2  0  0  0
 24 41  1  0  0  0
M  END
> <s_m_entry_id>
53141

> <s_m_entry_name>
dock_pv.360

> <s_m_Source_Path>
/home/csk/Desktop/cluster/DUD-E-result/hdac8

> <s_m_Source_File>
dock_pv.maegz

> <i_m_Source_File_Index>
360

> <chembl_id>
CHEMBL3694318

> <chembl_pref_name>
None

> <i_lp_mmshare_version>
53161

> <i_f3d_flags>
0

> <r_lp_tautomer_probability>
1

> <s_lp_Force_Field>
OPLS_2005

> <r_lp_Energy>
20.754341

> <b_lp_Chiralities_Consistent>
1

> <s_lp_Variant>
CHEMBL3192_lig1073-2

> <s_i_glide_gridfile>
glide-grid_3f07

> <i_i_glide_lignum>
1186

> <i_i_glide_rotatable_bonds>
6

> <r_i_docking_score>
-6.85044889612048

> <r_i_glide_ligand_efficiency>
-0.285435370671687

> <r_i_glide_ligand_efficiency_sa>
-0.823338080531347

> <r_i_glide_ligand_efficiency_ln>
-1.63962676745837

> <r_i_glide_gscore>
-6.85044889612048

> <r_i_glide_lipo>
-0.886055084895612

> <r_i_glide_hbond>
-0.608

> <r_i_glide_metal>
-1.7935334825956

> <r_i_glide_rewards>
-0.714371367993319

> <r_i_glide_evdw>
-16.9752941131592

> <r_i_glide_ecoul>
-16.7234287261963

> <r_i_glide_erotb>
0.788193356503118

> <r_i_glide_esite>
-0.279403302551664

> <r_i_glide_emodel>
-48.538798314671

> <r_i_glide_energy>
-33.6987228393555

> <r_i_glide_einternal>
2.22855639457703

> <i_i_glide_confnum>
176

> <i_i_glide_posenum>
119

> <r_i_glide_eff_state_penalty>
0

> <s_user_duplicate_titles>
CHEMBL3192_lig1073

> <s_m_subgroup_title>
dock_pv

> <s_m_subgroupid>
dock_pv

> <b_m_subgroup_collapsed>
1

$$$$
CHEMBL3192_lig562
                    3D
 Schrodinger Suite 2021-1.
 63 64  0  0  1  0            999 V2000
  -24.1016   31.6691  -39.5902 N   0  0  0  0  0  0
  -24.8967   31.5494  -40.6651 C   0  0  0  0  0  0
  -26.2187   32.3228  -40.6201 C   0  0  2  0  0  0
  -24.6213   30.8726  -41.6597 O   0  0  0  0  0  0
  -27.3465   31.4822  -39.9805 C   0  0  0  0  0  0
  -26.5140   32.7891  -41.9731 N   0  0  0  0  0  0
  -27.7080   30.1594  -40.6977 C   0  0  0  0  0  0
  -28.8982   29.4258  -40.0462 C   0  0  0  0  0  0
  -27.4127   33.7299  -42.3108 C   0  0  0  0  0  0
  -27.4313   34.2017  -43.7944 C   0  0  1  0  0  0
  -28.1909   34.2151  -41.4842 O   0  0  0  0  0  0
  -28.6137   28.8494  -38.6417 C   0  0  0  0  0  0
  -28.4101   27.3210  -38.5355 C   0  0  0  0  0  0
  -29.6939   26.4695  -38.5523 C   0  0  0  0  0  0
  -29.9535   25.7201  -37.4700 N   0  0  0  0  0  0
  -30.4179   26.4691  -39.5514 O   0  0  0  0  0  0
  -31.0478   24.8441  -37.5121 O   0  0  0  0  0  0
  -27.1835   33.1067  -44.7699 N   0  0  0  0  0  0
  -27.8106   32.8694  -45.9423 C   0  0  0  0  0  0
  -29.0039   33.7796  -46.2939 C   0  0  0  0  0  0
  -28.9155   35.1693  -45.6431 C   0  0  0  0  0  0
  -28.6833   35.0567  -44.1374 C   0  0  0  0  0  0
  -27.4398   31.9436  -46.6565 O   0  0  0  0  0  0
  -22.7614   31.0968  -39.5300 C   0  0  0  0  0  0
  -21.7118   31.9961  -40.2162 C   0  0  0  0  0  0
  -20.4430   31.2362  -40.5721 C   0  0  0  0  0  0
  -19.5408   30.8694  -39.5705 C   0  0  0  0  0  0
  -18.4084   30.1260  -39.8956 C   0  0  0  0  0  0
  -18.1824   29.7561  -41.2209 C   0  0  0  0  0  0
  -19.0749   30.1248  -42.2243 C   0  0  0  0  0  0
  -20.2068   30.8693  -41.8999 C   0  0  0  0  0  0
  -24.3765   32.2878  -38.8342 H   0  0  0  0  0  0
  -26.0602   33.2070  -39.9976 H   0  0  0  0  0  0
  -27.0338   31.2685  -38.9587 H   0  0  0  0  0  0
  -28.2406   32.0972  -39.8943 H   0  0  0  0  0  0
  -25.8994   32.3995  -42.6712 H   0  0  0  0  0  0
  -27.9543   30.3729  -41.7380 H   0  0  0  0  0  0
  -26.8532   29.4842  -40.7221 H   0  0  0  0  0  0
  -29.7429   30.1110  -39.9905 H   0  0  0  0  0  0
  -29.2315   28.6369  -40.7078 H   0  0  0  0  0  0
  -26.5628   34.8625  -43.8243 H   0  0  0  0  0  0
  -27.7222   29.3169  -38.2223 H   0  0  0  0  0  0
  -29.4144   29.1512  -37.9792 H   0  0  0  0  0  0
  -27.7264   26.9610  -39.3052 H   0  0  0  0  0  0
  -27.8991   27.1563  -37.5872 H   0  0  0  0  0  0
  -29.4105   25.6354  -36.6214 H   0  0  0  0  0  0
  -30.6460   23.9695  -37.5804 H   0  0  0  0  0  0
  -26.3795   32.5173  -44.6226 H   0  0  0  0  0  0
  -29.0609   33.8694  -47.3781 H   0  0  0  0  0  0
  -29.9123   33.2696  -45.9806 H   0  0  0  0  0  0
  -28.1100   35.7438  -46.1050 H   0  0  0  0  0  0
  -29.8334   35.7273  -45.8406 H   0  0  0  0  0  0
  -28.5620   36.0651  -43.7370 H   0  0  0  0  0  0
  -29.5839   34.6414  -43.6776 H   0  0  0  0  0  0
  -22.5011   30.9696  -38.4780 H   0  0  0  0  0  0
  -22.7697   30.1003  -39.9765 H   0  0  0  0  0  0
  -22.1199   32.4342  -41.1288 H   0  0  0  0  0  0
  -21.4632   32.8431  -39.5737 H   0  0  0  0  0  0
  -19.7219   31.1491  -38.5438 H   0  0  0  0  0  0
  -17.7110   29.8346  -39.1240 H   0  0  0  0  0  0
  -17.3072   29.1753  -41.4699 H   0  0  0  0  0  0
  -18.8946   29.8351  -43.2493 H   0  0  0  0  0  0
  -20.9017   31.1427  -42.6814 H   0  0  0  0  0  0
  1  2  1  0  0  0
  1 24  1  0  0  0
  1 32  1  0  0  0
  2  3  1  0  0  0
  2  4  2  0  0  0
  3  5  1  0  0  0
  3  6  1  0  0  0
  3 33  1  0  0  0
  5  7  1  0  0  0
  5 34  1  0  0  0
  5 35  1  0  0  0
  6  9  1  0  0  0
  6 36  1  0  0  0
  7  8  1  0  0  0
  7 37  1  0  0  0
  7 38  1  0  0  0
  8 12  1  0  0  0
  8 39  1  0  0  0
  8 40  1  0  0  0
  9 10  1  0  0  0
  9 11  2  0  0  0
 10 18  1  0  0  0
 10 22  1  0  0  0
 10 41  1  0  0  0
 12 13  1  0  0  0
 12 42  1  0  0  0
 12 43  1  0  0  0
 13 14  1  0  0  0
 13 44  1  0  0  0
 13 45  1  0  0  0
 14 15  1  0  0  0
 14 16  2  0  0  0
 15 17  1  0  0  0
 15 46  1  0  0  0
 17 47  1  0  0  0
 18 19  1  0  0  0
 18 48  1  0  0  0
 19 20  1  0  0  0
 19 23  2  0  0  0
 20 21  1  0  0  0
 20 49  1  0  0  0
 20 50  1  0  0  0
 21 22  1  0  0  0
 21 51  1  0  0  0
 21 52  1  0  0  0
 22 53  1  0  0  0
 22 54  1  0  0  0
 24 25  1  0  0  0
 24 55  1  0  0  0
 24 56  1  0  0  0
 25 26  1  0  0  0
 25 57  1  0  0  0
 25 58  1  0  0  0
 26 27  2  0  0  0
 26 31  1  0  0  0
 27 28  1  0  0  0
 27 59  1  0  0  0
 28 29  2  0  0  0
 28 60  1  0  0  0
 29 30  1  0  0  0
 29 61  1  0  0  0
 30 31  2  0  0  0
 30 62  1  0  0  0
 31 63  1  0  0  0
M  END
> <s_m_entry_id>
53142

> <s_m_entry_name>
dock_pv.361

> <s_m_Source_Path>
/home/csk/Desktop/cluster/DUD-E-result/hdac8

> <s_m_Source_File>
dock_pv.maegz

> <i_m_Source_File_Index>
361

> <chembl_id>
CHEMBL3098687

> <chembl_pref_name>
None

> <i_lp_mmshare_version>
53161

> <i_f3d_flags>
0

> <r_lp_tautomer_probability>
1

> <s_lp_Force_Field>
OPLS_2005

> <r_lp_Energy>
20.730471

> <b_lp_Chiralities_Consistent>
1

> <s_lp_Variant>
CHEMBL3192_lig562-1

> <s_i_glide_gridfile>
glide-grid_3f07

> <i_i_glide_lignum>
583

> <i_i_glide_rotatable_bonds>
16

> <r_i_docking_score>
-6.83899040729193

> <r_i_glide_ligand_efficiency>
-0.220612593783611

> <r_i_glide_ligand_efficiency_sa>
-0.693028132992433

> <r_i_glide_ligand_efficiency_ln>
-1.54240192672952

> <r_i_glide_gscore>
-6.83899040729193

> <r_i_glide_lipo>
-0.340568456997384

> <r_i_glide_hbond>
-0.399766630446369

> <r_i_glide_metal>
-2.3

> <r_i_glide_rewards>
-0.561461251403849

> <r_i_glide_evdw>
-30.8372802734375

> <r_i_glide_ecoul>
-18.8593826293945

> <r_i_glide_erotb>
1.38286424304279

> <r_i_glide_esite>
-0.249286903406064

> <r_i_glide_emodel>
-71.3981371957636

> <r_i_glide_energy>
-49.696662902832

> <r_i_glide_einternal>
11.0517196655273

> <i_i_glide_confnum>
8

> <i_i_glide_posenum>
372

> <r_i_glide_eff_state_penalty>
0

> <s_user_duplicate_titles>
CHEMBL3192_lig562

> <s_m_subgroup_title>
dock_pv

> <s_m_subgroupid>
dock_pv

> <b_m_subgroup_collapsed>
1

$$$$
CHEMBL3192_lig933
                    3D
 Schrodinger Suite 2021-1.
 46 48  0  0  1  0            999 V2000
  -27.4130   33.2107  -44.7810 C   0  0  0  0  0  0
  -27.4654   32.9815  -46.1513 C   0  0  0  0  0  0
  -26.3781   32.4207  -46.8149 C   0  0  0  0  0  0
  -26.2872   32.8561  -44.0412 C   0  0  0  0  0  0
  -25.1653   32.2518  -44.6782 C   0  0  0  0  0  0
  -25.2105   32.0665  -46.0975 C   0  0  0  0  0  0
  -24.1516   31.5688  -46.7934 N   0  0  0  0  0  0
  -23.0447   31.2690  -46.0784 C   0  0  0  0  0  0
  -22.9003   31.3529  -44.7392 N   0  0  0  0  0  0
  -23.9550   31.8298  -44.0237 C   0  0  0  0  0  0
  -23.7906   31.8791  -42.6102 N   0  0  0  0  0  0
  -24.6814   31.3489  -41.6343 C   0  0  0  0  0  0
  -22.4473   32.2546  -42.1293 C   0  0  0  0  0  0
  -25.7026   30.4690  -42.0239 C   0  0  0  0  0  0
  -26.6130   29.9690  -41.0998 C   0  0  0  0  0  0
  -26.5170   30.3258  -39.7495 C   0  0  0  0  0  0
  -25.4795   31.1565  -39.3416 C   0  0  0  0  0  0
  -24.5765   31.6690  -40.2693 C   0  0  0  0  0  0
  -27.4032   29.8994  -38.7810 O   0  0  0  0  0  0
  -28.7460   29.6305  -39.1748 C   0  0  0  0  0  0
  -28.9692   28.1267  -39.4024 C   0  0  0  0  0  0
  -29.1449   27.2900  -38.1041 C   0  0  0  0  0  0
  -30.2130   26.1838  -38.1658 C   0  0  0  0  0  0
  -30.3505   25.4177  -37.0720 N   0  0  0  0  0  0
  -30.9116   26.0690  -39.1810 O   0  0  0  0  0  0
  -31.3363   24.4189  -37.0813 O   0  0  0  0  0  0
  -28.2564   33.6691  -44.2868 H   0  0  0  0  0  0
  -28.3503   33.2572  -46.7074 H   0  0  0  0  0  0
  -26.4137   32.2671  -47.8840 H   0  0  0  0  0  0
  -26.2653   33.0530  -42.9796 H   0  0  0  0  0  0
  -22.1947   30.8921  -46.6298 H   0  0  0  0  0  0
  -21.8349   32.7055  -42.9118 H   0  0  0  0  0  0
  -22.4872   33.0013  -41.3371 H   0  0  0  0  0  0
  -21.9084   31.3770  -41.7696 H   0  0  0  0  0  0
  -25.8067   30.1649  -43.0542 H   0  0  0  0  0  0
  -27.3885   29.3066  -41.4482 H   0  0  0  0  0  0
  -25.3926   31.4404  -38.3027 H   0  0  0  0  0  0
  -23.8190   32.3404  -39.8947 H   0  0  0  0  0  0
  -29.0356   30.2034  -40.0587 H   0  0  0  0  0  0
  -29.4130   29.9882  -38.3903 H   0  0  0  0  0  0
  -28.1446   27.7093  -39.9810 H   0  0  0  0  0  0
  -29.8358   28.0570  -40.0527 H   0  0  0  0  0  0
  -29.4319   27.9450  -37.2800 H   0  0  0  0  0  0
  -28.1814   26.8690  -37.8263 H   0  0  0  0  0  0
  -29.8166   25.4509  -36.2131 H   0  0  0  0  0  0
  -30.8354   23.6049  -37.2158 H   0  0  0  0  0  0
  1  2  2  0  0  0
  1  4  1  0  0  0
  1 27  1  0  0  0
  2  3  1  0  0  0
  2 28  1  0  0  0
  3  6  2  0  0  0
  3 29  1  0  0  0
  4  5  2  0  0  0
  4 30  1  0  0  0
  5  6  1  0  0  0
  5 10  1  0  0  0
  6  7  1  0  0  0
  7  8  2  0  0  0
  8  9  1  0  0  0
  8 31  1  0  0  0
  9 10  2  0  0  0
 10 11  1  0  0  0
 11 12  1  0  0  0
 11 13  1  0  0  0
 12 14  2  0  0  0
 12 18  1  0  0  0
 13 32  1  0  0  0
 13 33  1  0  0  0
 13 34  1  0  0  0
 14 15  1  0  0  0
 14 35  1  0  0  0
 15 16  2  0  0  0
 15 36  1  0  0  0
 16 17  1  0  0  0
 16 19  1  0  0  0
 17 18  2  0  0  0
 17 37  1  0  0  0
 18 38  1  0  0  0
 19 20  1  0  0  0
 20 21  1  0  0  0
 20 39  1  0  0  0
 20 40  1  0  0  0
 21 22  1  0  0  0
 21 41  1  0  0  0
 21 42  1  0  0  0
 22 23  1  0  0  0
 22 43  1  0  0  0
 22 44  1  0  0  0
 23 24  1  0  0  0
 23 25  2  0  0  0
 24 26  1  0  0  0
 24 45  1  0  0  0
 26 46  1  0  0  0
M  END
> <s_m_entry_id>
53143

> <s_m_entry_name>
dock_pv.362

> <s_m_Source_Path>
/home/csk/Desktop/cluster/DUD-E-result/hdac8

> <s_m_Source_File>
dock_pv.maegz

> <i_m_Source_File_Index>
362

> <chembl_id>
CHEMBL3775209

> <chembl_pref_name>
None

> <i_lp_mmshare_version>
53161

> <i_f3d_flags>
0

> <r_lp_tautomer_probability>
1

> <s_lp_Force_Field>
OPLS_2005

> <r_lp_Energy>
33.611761

> <b_lp_Chiralities_Consistent>
1

> <s_lp_Variant>
CHEMBL3192_lig933-1

> <s_i_glide_gridfile>
glide-grid_3f07

> <i_i_glide_lignum>
994

> <i_i_glide_rotatable_bonds>
9

> <r_i_docking_score>
-6.83856594158568

> <r_i_glide_ligand_efficiency>
-0.263021766984065

> <r_i_glide_ligand_efficiency_sa>
-0.779200949749614

> <r_i_glide_ligand_efficiency_ln>
-1.60601477221632

> <r_i_glide_gscore>
-6.83856594158568

> <r_i_glide_lipo>
-0.893253687389829

> <r_i_glide_hbond>
-0.24250884669293

> <r_i_glide_metal>
-2.3

> <r_i_glide_rewards>
-0.863316276570791

> <r_i_glide_evdw>
-35.1907730102539

> <r_i_glide_ecoul>
-12.6660871505737

> <r_i_glide_erotb>
1.22949242510996

> <r_i_glide_esite>
-0.109527832943332

> <r_i_glide_emodel>
-69.1603661134857

> <r_i_glide_energy>
-47.8568601608276

> <r_i_glide_einternal>
5.52585697174072

> <i_i_glide_confnum>
65

> <i_i_glide_posenum>
98

> <r_i_glide_eff_state_penalty>
0

> <s_user_duplicate_titles>
CHEMBL3192_lig933

> <s_m_subgroup_title>
dock_pv

> <s_m_subgroupid>
dock_pv

> <b_m_subgroup_collapsed>
1

$$$$
CHEMBL3192_lig1066
                    3D
 Schrodinger Suite 2021-1.
 42 44  0  0  1  0            999 V2000
  -30.4495   26.0116  -37.1621 O   0  0  0  0  0  0
  -29.4130   26.8665  -37.5810 N   0  0  0  0  0  0
  -29.3701   27.2690  -38.8523 C   0  0  0  0  0  0
  -30.2130   26.8690  -39.6572 O   0  0  0  0  0  0
  -28.2982   28.3085  -39.1765 C   0  0  0  0  0  0
  -27.1595   28.3641  -38.3810 C   0  0  0  0  0  0
  -26.1637   29.2972  -38.5914 C   0  0  0  0  0  0
  -26.2130   30.2002  -39.6334 C   0  0  0  0  0  0
  -25.0059   31.1203  -39.8533 C   0  0  0  0  0  0
  -25.3168   32.2918  -40.7964 C   0  0  0  0  0  0
  -26.0722   31.8048  -42.0407 C   0  0  2  0  0  0
  -27.4130   31.1611  -41.6476 C   0  0  0  0  0  0
  -27.3373   30.1722  -40.4843 C   0  0  0  0  0  0
  -28.3793   29.2475  -40.2276 C   0  0  0  0  0  0
  -25.2491   30.7937  -42.7464 N   0  0  2  0  0  0
  -24.2914   31.2850  -44.1293 S   0  0  0  0  0  0
  -23.4692   32.4315  -43.7297 O   0  0  0  0  0  0
  -23.6900   30.0690  -44.6853 O   0  0  0  0  0  0
  -25.4932   31.8600  -45.3244 C   0  0  0  0  0  0
  -25.4748   33.1838  -45.7711 C   0  0  0  0  0  0
  -26.4351   33.6171  -46.6827 C   0  0  0  0  0  0
  -27.4029   32.7270  -47.1467 C   0  0  0  0  0  0
  -28.6022   33.2690  -48.2637 Cl  0  0  0  0  0  0
  -27.4130   31.4036  -46.7111 C   0  0  0  0  0  0
  -26.4602   30.9707  -45.7932 C   0  0  0  0  0  0
  -30.9952   26.5708  -36.6003 H   0  0  0  0  0  0
  -28.8226   27.1877  -36.8163 H   0  0  0  0  0  0
  -27.0130   27.6558  -37.5810 H   0  0  0  0  0  0
  -25.2755   29.2702  -37.9810 H   0  0  0  0  0  0
  -24.6403   31.5078  -38.9002 H   0  0  0  0  0  0
  -24.1905   30.5249  -40.2674 H   0  0  0  0  0  0
  -25.9194   33.0269  -40.2597 H   0  0  0  0  0  0
  -24.3876   32.7921  -41.0743 H   0  0  0  0  0  0
  -26.1967   32.6884  -42.6701 H   0  0  0  0  0  0
  -27.8130   30.6621  -42.5237 H   0  0  0  0  0  0
  -28.1125   31.9481  -41.3675 H   0  0  0  0  0  0
  -29.2499   29.2620  -40.8675 H   0  0  0  0  0  0
  -25.6963   29.8814  -42.8514 H   0  0  0  0  0  0
  -24.7276   33.8775  -45.4120 H   0  0  0  0  0  0
  -26.4303   34.6413  -47.0262 H   0  0  0  0  0  0
  -28.1655   30.7193  -47.0765 H   0  0  0  0  0  0
  -26.4732   29.9495  -45.4432 H   0  0  0  0  0  0
  1  2  1  0  0  0
  1 26  1  0  0  0
  2  3  1  0  0  0
  2 27  1  0  0  0
  3  4  2  0  0  0
  3  5  1  0  0  0
  5  6  2  0  0  0
  5 14  1  0  0  0
  6  7  1  0  0  0
  6 28  1  0  0  0
  7  8  2  0  0  0
  7 29  1  0  0  0
  8  9  1  0  0  0
  8 13  1  0  0  0
  9 10  1  0  0  0
  9 30  1  0  0  0
  9 31  1  0  0  0
 10 11  1  0  0  0
 10 32  1  0  0  0
 10 33  1  0  0  0
 11 12  1  0  0  0
 11 15  1  0  0  0
 11 34  1  0  0  0
 12 13  1  0  0  0
 12 35  1  0  0  0
 12 36  1  0  0  0
 13 14  2  0  0  0
 14 37  1  0  0  0
 15 16  1  0  0  0
 15 38  1  0  0  0
 16 17  2  0  0  0
 16 18  2  0  0  0
 16 19  1  0  0  0
 19 20  2  0  0  0
 19 25  1  0  0  0
 20 21  1  0  0  0
 20 39  1  0  0  0
 21 22  2  0  0  0
 21 40  1  0  0  0
 22 23  1  0  0  0
 22 24  1  0  0  0
 24 25  2  0  0  0
 24 41  1  0  0  0
 25 42  1  0  0  0
M  END
> <s_m_entry_id>
53144

> <s_m_entry_name>
dock_pv.363

> <s_m_Source_Path>
/home/csk/Desktop/cluster/DUD-E-result/hdac8

> <s_m_Source_File>
dock_pv.maegz

> <i_m_Source_File_Index>
363

> <chembl_id>
CHEMBL3694312

> <chembl_pref_name>
None

> <i_lp_mmshare_version>
53161

> <i_f3d_flags>
0

> <r_lp_tautomer_probability>
1

> <s_lp_Force_Field>
OPLS_2005

> <r_lp_Energy>
28.435077

> <b_lp_Chiralities_Consistent>
1

> <s_lp_Variant>
CHEMBL3192_lig1066-1

> <s_i_glide_gridfile>
glide-grid_3f07

> <i_i_glide_lignum>
1171

> <i_i_glide_rotatable_bonds>
6

> <r_i_docking_score>
-6.82143414466916

> <r_i_glide_ligand_efficiency>
-0.272857365786766

> <r_i_glide_ligand_efficiency_sa>
-0.797839776706492

> <r_i_glide_ligand_efficiency_ln>
-1.61688431417207

> <r_i_glide_gscore>
-6.82143414466916

> <r_i_glide_lipo>
-1.4453192678996

> <r_i_glide_hbond>
-0.608

> <r_i_glide_metal>
-1.87508577529758

> <r_i_glide_rewards>
-0.191671189897425

> <r_i_glide_evdw>
-23.4012413024902

> <r_i_glide_ecoul>
-13.3177165985107

> <r_i_glide_erotb>
0.668928188194765

> <r_i_glide_esite>
-0.202566544868205

> <r_i_glide_emodel>
-50.5780720732907

> <r_i_glide_energy>
-36.718957901001

> <r_i_glide_einternal>
0.354147285223007

> <i_i_glide_confnum>
150

> <i_i_glide_posenum>
247

> <r_i_glide_eff_state_penalty>
0

> <s_user_duplicate_titles>
CHEMBL3192_lig1066

> <s_m_subgroup_title>
dock_pv

> <s_m_subgroupid>
dock_pv

> <b_m_subgroup_collapsed>
1

$$$$
CHEMBL3192_lig1069
                    3D
 Schrodinger Suite 2021-1.
 42 44  0  0  1  0            999 V2000
  -30.2212   25.5367  -37.3020 O   0  0  0  0  0  0
  -29.4134   26.6609  -37.5542 N   0  0  0  0  0  0
  -29.4089   27.2014  -38.7726 C   0  0  0  0  0  0
  -30.2555   26.8680  -39.5880 O   0  0  0  0  0  0
  -28.3837   28.2789  -39.0657 C   0  0  0  0  0  0
  -27.1803   28.2862  -38.3807 C   0  0  0  0  0  0
  -26.2179   29.2670  -38.5781 C   0  0  0  0  0  0
  -26.3840   30.2506  -39.5283 C   0  0  0  0  0  0
  -25.2634   31.2750  -39.7145 C   0  0  0  0  0  0
  -25.3406   31.9532  -41.0886 C   0  0  0  0  0  0
  -26.7655   32.4567  -41.3367 C   0  0  1  0  0  0
  -27.8133   31.3276  -41.3294 C   0  0  0  0  0  0
  -27.5913   30.2711  -40.2623 C   0  0  0  0  0  0
  -28.5753   29.2896  -40.0173 C   0  0  0  0  0  0
  -27.1535   33.4345  -40.2963 N   0  0  2  0  0  0
  -27.7213   35.0123  -40.8022 S   0  0  0  0  0  0
  -28.6113   34.7994  -41.9492 O   0  0  0  0  0  0
  -28.2067   35.6896  -39.5976 O   0  0  0  0  0  0
  -26.2654   35.8852  -41.3683 C   0  0  0  0  0  0
  -25.0228   35.6149  -40.7821 C   0  0  0  0  0  0
  -23.8835   36.2910  -41.2150 C   0  0  0  0  0  0
  -23.9767   37.2326  -42.2386 C   0  0  0  0  0  0
  -22.8713   37.8836  -42.6642 F   0  0  0  0  0  0
  -25.2122   37.5075  -42.8211 C   0  0  0  0  0  0
  -26.3589   36.8450  -42.3837 C   0  0  0  0  0  0
  -27.5478   37.1411  -42.9586 F   0  0  0  0  0  0
  -29.5966   24.8016  -37.2498 H   0  0  0  0  0  0
  -28.7955   26.9046  -36.7882 H   0  0  0  0  0  0
  -27.0117   27.5275  -37.6336 H   0  0  0  0  0  0
  -25.3096   29.2348  -37.9937 H   0  0  0  0  0  0
  -25.3350   32.0206  -38.9221 H   0  0  0  0  0  0
  -24.2872   30.8029  -39.5908 H   0  0  0  0  0  0
  -24.6145   32.7638  -41.1431 H   0  0  0  0  0  0
  -25.0683   31.2264  -41.8563 H   0  0  0  0  0  0
  -26.8127   32.9308  -42.3181 H   0  0  0  0  0  0
  -27.8102   30.8343  -42.3032 H   0  0  0  0  0  0
  -28.8135   31.7341  -41.1810 H   0  0  0  0  0  0
  -29.4963   29.3193  -40.5848 H   0  0  0  0  0  0
  -26.5236   33.4696  -39.4858 H   0  0  0  0  0  0
  -24.9242   34.8962  -39.9799 H   0  0  0  0  0  0
  -22.9256   36.0892  -40.7573 H   0  0  0  0  0  0
  -25.2821   38.2316  -43.6177 H   0  0  0  0  0  0
  1  2  1  0  0  0
  1 27  1  0  0  0
  2  3  1  0  0  0
  2 28  1  0  0  0
  3  4  2  0  0  0
  3  5  1  0  0  0
  5  6  2  0  0  0
  5 14  1  0  0  0
  6  7  1  0  0  0
  6 29  1  0  0  0
  7  8  2  0  0  0
  7 30  1  0  0  0
  8  9  1  0  0  0
  8 13  1  0  0  0
  9 10  1  0  0  0
  9 31  1  0  0  0
  9 32  1  0  0  0
 10 11  1  0  0  0
 10 33  1  0  0  0
 10 34  1  0  0  0
 11 12  1  0  0  0
 11 15  1  0  0  0
 11 35  1  0  0  0
 12 13  1  0  0  0
 12 36  1  0  0  0
 12 37  1  0  0  0
 13 14  2  0  0  0
 14 38  1  0  0  0
 15 16  1  0  0  0
 15 39  1  0  0  0
 16 17  2  0  0  0
 16 18  2  0  0  0
 16 19  1  0  0  0
 19 20  2  0  0  0
 19 25  1  0  0  0
 20 21  1  0  0  0
 20 40  1  0  0  0
 21 22  2  0  0  0
 21 41  1  0  0  0
 22 23  1  0  0  0
 22 24  1  0  0  0
 24 25  2  0  0  0
 24 42  1  0  0  0
 25 26  1  0  0  0
M  END
> <s_m_entry_id>
53145

> <s_m_entry_name>
dock_pv.364

> <s_m_Source_Path>
/home/csk/Desktop/cluster/DUD-E-result/hdac8

> <s_m_Source_File>
dock_pv.maegz

> <i_m_Source_File_Index>
364

> <chembl_id>
CHEMBL3694314

> <chembl_pref_name>
None

> <i_lp_mmshare_version>
53161

> <i_f3d_flags>
0

> <r_lp_tautomer_probability>
1

> <s_lp_Force_Field>
OPLS_2005

> <r_lp_Energy>
23.34253

> <b_lp_Chiralities_Consistent>
1

> <s_lp_Variant>
CHEMBL3192_lig1069-2

> <s_i_glide_gridfile>
glide-grid_3f07

> <i_i_glide_lignum>
1178

> <i_i_glide_rotatable_bonds>
6

> <r_i_docking_score>
-6.81827876065202

> <r_i_glide_ligand_efficiency>
-0.262241490794308

> <r_i_glide_ligand_efficiency_sa>
-0.776889384607699

> <r_i_glide_ligand_efficiency_ln>
-1.60125039434172

> <r_i_glide_gscore>
-6.81827876065202

> <r_i_glide_lipo>
-0.842836792966564

> <r_i_glide_hbond>
-0.611674296088383

> <r_i_glide_metal>
-1.71051923402921

> <r_i_glide_rewards>
-0.554691414482079

> <r_i_glide_evdw>
-19.4260864257812

> <r_i_glide_ecoul>
-16.6863250732422

> <r_i_glide_erotb>
0.664119199249801

> <r_i_glide_esite>
-0.28842314006019

> <r_i_glide_emodel>
-52.2455599047731

> <r_i_glide_energy>
-36.1124114990234

> <r_i_glide_einternal>
1.52392625808716

> <i_i_glide_confnum>
85

> <i_i_glide_posenum>
273

> <r_i_glide_eff_state_penalty>
0

> <s_user_duplicate_titles>
CHEMBL3192_lig1069

> <s_m_subgroup_title>
dock_pv

> <s_m_subgroupid>
dock_pv

> <b_m_subgroup_collapsed>
1

$$$$
324602
                    3D
 Schrodinger Suite 2021-1.
 38 39  0  0  1  0            999 V2000
  -26.4615   31.5313  -47.6758 C   0  0  0  0  0  0
  -25.1141   31.6690  -47.9993 C   0  0  0  0  0  0
  -24.1306   31.5412  -47.0193 C   0  0  0  0  0  0
  -24.4951   31.2722  -45.6776 C   0  0  0  0  0  0
  -25.8767   31.1349  -45.3457 C   0  0  0  0  0  0
  -26.8522   31.2690  -46.3647 C   0  0  0  0  0  0
  -26.2130   30.8700  -43.9953 C   0  0  0  0  0  0
  -25.2025   30.7512  -43.0329 C   0  0  0  0  0  0
  -23.8824   30.9224  -43.4543 C   0  0  0  0  0  0
  -23.5168   31.1623  -44.7374 N   0  0  0  0  0  0
  -25.4130   30.4690  -41.6671 N   0  0  0  0  0  0
  -26.5495   30.1445  -41.0120 C   0  0  0  0  0  0
  -27.6655   30.0690  -41.5222 O   0  0  0  0  0  0
  -26.3945   29.8730  -39.5082 C   0  0  0  0  0  0
  -27.0077   28.5421  -39.0045 C   0  0  0  0  0  0
  -28.5427   28.4449  -39.0153 C   0  0  0  0  0  0
  -29.0130   27.5311  -37.9810 N   0  0  0  0  0  0
  -29.8179   26.4690  -38.0947 C   0  0  0  0  0  0
  -30.2431   26.0690  -39.1810 O   0  0  0  0  0  0
  -30.2590   25.8489  -36.7576 C   0  0  0  0  0  0
  -31.4130   24.4690  -36.9758 S   0  0  0  0  0  0
  -27.2129   31.6317  -48.4466 H   0  0  0  0  0  0
  -24.8293   31.8792  -49.0201 H   0  0  0  0  0  0
  -23.0861   31.6517  -47.2743 H   0  0  0  0  0  0
  -27.8993   31.1659  -46.1187 H   0  0  0  0  0  0
  -27.2559   30.7816  -43.7429 H   0  0  0  0  0  0
  -23.0644   30.8690  -42.7506 H   0  0  0  0  0  0
  -24.5805   30.5007  -41.0981 H   0  0  0  0  0  0
  -26.8185   30.7148  -38.9594 H   0  0  0  0  0  0
  -25.3323   29.8681  -39.2547 H   0  0  0  0  0  0
  -26.6488   28.3957  -37.9836 H   0  0  0  0  0  0
  -26.6130   27.7001  -39.5728 H   0  0  0  0  0  0
  -28.9109   28.1939  -40.0097 H   0  0  0  0  0  0
  -28.9725   29.4201  -38.7811 H   0  0  0  0  0  0
  -28.6981   27.7503  -37.0368 H   0  0  0  0  0  0
  -30.7569   26.6150  -36.1618 H   0  0  0  0  0  0
  -29.4130   25.4984  -36.1755 H   0  0  0  0  0  0
  -30.5027   23.5823  -37.4081 H   0  0  0  0  0  0
  1  6  1  0  0  0
  1  2  2  0  0  0
  1 22  1  0  0  0
  2  3  1  0  0  0
  2 23  1  0  0  0
  3  4  2  0  0  0
  3 24  1  0  0  0
  4 10  1  0  0  0
  4  5  1  0  0  0
  5  6  2  0  0  0
  5  7  1  0  0  0
  6 25  1  0  0  0
  7  8  2  0  0  0
  7 26  1  0  0  0
  8  9  1  0  0  0
  8 11  1  0  0  0
  9 10  2  0  0  0
  9 27  1  0  0  0
 11 12  1  0  0  0
 11 28  1  0  0  0
 12 13  2  0  0  0
 12 14  1  0  0  0
 14 15  1  0  0  0
 14 29  1  0  0  0
 14 30  1  0  0  0
 15 16  1  0  0  0
 15 31  1  0  0  0
 15 32  1  0  0  0
 16 17  1  0  0  0
 16 33  1  0  0  0
 16 34  1  0  0  0
 17 18  1  0  0  0
 17 35  1  0  0  0
 18 19  2  0  0  0
 18 20  1  0  0  0
 20 21  1  0  0  0
 20 36  1  0  0  0
 20 37  1  0  0  0
 21 38  1  0  0  0
M  END
> <s_m_entry_id>
53509

> <s_m_entry_name>
ligand_docking-pose.2

> <s_m_Source_Path>
/home/csk/Desktop/cluster/DUD-E-result/hdac8

> <s_m_Source_File>
ligand_docking-pose.sdf

> <i_m_Source_File_Index>
2

> <i_lp_mmshare_version>
53161

> <r_lp_tautomer_probability>
1

> <s_lp_Force_Field>
OPLS_2005

> <r_lp_Energy>
12.266986

> <b_lp_Chiralities_Consistent>
1

> <s_lp_Variant>
324602-1

> <s_i_glide_gridfile>
glide-grid_3f07

> <i_i_glide_lignum>
21

> <i_i_glide_rotatable_bonds>
9

> <r_i_docking_score>
-8.6837199311796

> <r_i_glide_ligand_efficiency>
-0.413510472913314

> <r_i_glide_ligand_efficiency_sa>
-1.14084403974956

> <r_i_glide_ligand_efficiency_ln>
-2.14703220587583

> <r_i_glide_gscore>
-8.6837199311796

> <r_i_glide_lipo>
-1.50374278991731

> <r_i_glide_hbond>
-0.731479505696797

> <r_i_glide_metal>
-2.3

> <r_i_glide_rewards>
-1.34049722239631

> <r_i_glide_evdw>
-32.549488067627

> <r_i_glide_ecoul>
-15.8795013427734

> <r_i_glide_erotb>
1.40139919162818

> <r_i_glide_esite>
-0.2

> <r_i_glide_emodel>
-76.4124082697367

> <r_i_glide_energy>
-48.4289894104004

> <r_i_glide_einternal>
7.77740812301636

> <i_i_glide_confnum>
1

> <i_i_glide_posenum>
38

> <r_i_glide_eff_state_penalty>
0

> <i_f3d_flags>
0

> <s_user_duplicate_titles>
324602

> <s_m_subgroup_title>
dock_pv

> <s_m_subgroupid>
dock_pv1

> <b_m_subgroup_collapsed>
0

$$$$
329830
                    3D
 Schrodinger Suite 2021-1.
 42 44  0  0  1  0            999 V2000
  -26.1612   32.9271  -44.6810 C   0  0  0  0  0  0
  -27.0378   33.2999  -45.6968 C   0  0  0  0  0  0
  -26.9543   32.7004  -46.9565 C   0  0  0  0  0  0
  -25.9849   31.7164  -47.1885 C   0  0  0  0  0  0
  -25.1080   31.3428  -46.1727 C   0  0  0  0  0  0
  -25.1952   31.9463  -44.9171 C   0  0  0  0  0  0
  -24.2401   31.5205  -43.8021 C   0  0  0  0  0  0
  -24.8900   31.0615  -42.5588 N   0  0  0  0  0  0
  -24.6129   31.5892  -41.3380 C   0  0  0  0  0  0
  -23.8059   32.4818  -41.0834 O   0  0  0  0  0  0
  -25.4952   30.8578  -40.3905 C   0  0  0  0  0  0
  -25.6583   30.9674  -39.0113 C   0  0  0  0  0  0
  -26.6130   30.1612  -38.3810 C   0  0  0  0  0  0
  -27.3858   29.2371  -39.1035 C   0  0  0  0  0  0
  -27.1770   29.1461  -40.4864 C   0  0  0  0  0  0
  -26.2330   29.9627  -41.1101 C   0  0  0  0  0  0
  -25.8164   30.0690  -42.5320 C   0  0  0  0  0  0
  -26.2130   29.4018  -43.4881 O   0  0  0  0  0  0
  -28.3981   28.3969  -38.4125 C   0  0  0  0  0  0
  -28.7680   27.1412  -38.7638 C   0  0  0  0  0  0
  -29.8130   26.3693  -38.1180 C   0  0  0  0  0  0
  -30.5828   25.6690  -38.7810 O   0  0  0  0  0  0
  -29.8725   26.4690  -36.7810 N   0  0  0  0  0  0
  -30.8545   25.7379  -36.0976 O   0  0  0  0  0  0
  -27.9097   33.1720  -48.0526 C   0  0  0  0  0  0
  -27.8275   32.4690  -49.2787 O   0  0  0  0  0  0
  -26.2322   33.4006  -43.7123 H   0  0  0  0  0  0
  -27.7769   34.0645  -45.5056 H   0  0  0  0  0  0
  -25.8973   31.2460  -48.1565 H   0  0  0  0  0  0
  -24.3653   30.5824  -46.3637 H   0  0  0  0  0  0
  -23.5773   32.3642  -43.5999 H   0  0  0  0  0  0
  -23.5881   30.7228  -44.1597 H   0  0  0  0  0  0
  -25.0767   31.6690  -38.4304 H   0  0  0  0  0  0
  -26.7570   30.2822  -37.3206 H   0  0  0  0  0  0
  -27.7687   28.4690  -41.0716 H   0  0  0  0  0  0
  -28.8974   28.8690  -37.5810 H   0  0  0  0  0  0
  -28.2829   26.6374  -39.5834 H   0  0  0  0  0  0
  -29.2491   26.9947  -36.1688 H   0  0  0  0  0  0
  -30.3574   25.0422  -35.6569 H   0  0  0  0  0  0
  -28.9375   33.1156  -47.6897 H   0  0  0  0  0  0
  -27.7172   34.2283  -48.2446 H   0  0  0  0  0  0
  -28.3020   31.6326  -49.1810 H   0  0  0  0  0  0
  1  6  1  0  0  0
  1  2  2  0  0  0
  1 27  1  0  0  0
  2  3  1  0  0  0
  2 28  1  0  0  0
  3  4  2  0  0  0
  3 25  1  0  0  0
  4  5  1  0  0  0
  4 29  1  0  0  0
  5  6  2  0  0  0
  5 30  1  0  0  0
  6  7  1  0  0  0
  7  8  1  0  0  0
  7 31  1  0  0  0
  7 32  1  0  0  0
  8 17  1  0  0  0
  8  9  1  0  0  0
  9 10  2  0  0  0
  9 11  1  0  0  0
 11 16  2  0  0  0
 11 12  1  0  0  0
 12 13  2  0  0  0
 12 33  1  0  0  0
 13 14  1  0  0  0
 13 34  1  0  0  0
 14 15  2  0  0  0
 14 19  1  0  0  0
 15 16  1  0  0  0
 15 35  1  0  0  0
 16 17  1  0  0  0
 17 18  2  0  0  0
 19 20  2  0  0  0
 19 36  1  0  0  0
 20 21  1  0  0  0
 20 37  1  0  0  0
 21 22  2  0  0  0
 21 23  1  0  0  0
 23 24  1  0  0  0
 23 38  1  0  0  0
 24 39  1  0  0  0
 25 26  1  0  0  0
 25 40  1  0  0  0
 25 41  1  0  0  0
 26 42  1  0  0  0
M  END
> <s_m_entry_id>
53510

> <s_m_entry_name>
ligand_docking-pose.3

> <s_m_Source_Path>
/home/csk/Desktop/cluster/DUD-E-result/hdac8

> <s_m_Source_File>
ligand_docking-pose.sdf

> <i_m_Source_File_Index>
3

> <i_lp_mmshare_version>
53161

> <r_lp_tautomer_probability>
1

> <s_lp_Force_Field>
OPLS_2005

> <r_lp_Energy>
48.370042

> <b_lp_Chiralities_Consistent>
1

> <s_lp_Variant>
329830-1

> <s_i_glide_gridfile>
glide-grid_3f07

> <i_i_glide_lignum>
165

> <i_i_glide_rotatable_bonds>
8

> <r_i_docking_score>
-8.67017318110483

> <r_i_glide_ligand_efficiency>
-0.333468199273263

> <r_i_glide_ligand_efficiency_sa>
-0.987898228213037

> <r_i_glide_ligand_efficiency_ln>
-2.03616172242385

> <r_i_glide_gscore>
-8.67017318110483

> <r_i_glide_lipo>
-1.35547789229451

> <r_i_glide_hbond>
-0.801326600133487

> <r_i_glide_metal>
-2.3

> <r_i_glide_rewards>
-1.19144054379357

> <r_i_glide_evdw>
-33.4233436584473

> <r_i_glide_ecoul>
-14.2645893096924

> <r_i_glide_erotb>
0.922335168313107

> <r_i_glide_esite>
-0.13340773382016

> <r_i_glide_emodel>
-73.1997040576126

> <r_i_glide_energy>
-47.6879329681396

> <r_i_glide_einternal>
5.27281332015991

> <i_i_glide_confnum>
54

> <i_i_glide_posenum>
61

> <r_i_glide_eff_state_penalty>
0

> <i_f3d_flags>
0

> <s_user_duplicate_titles>
329830

> <s_m_subgroup_title>
dock_pv

> <s_m_subgroupid>
dock_pv1

> <b_m_subgroup_collapsed>
0

$$$$
331388
                    3D
 Schrodinger Suite 2021-1.
 48 49  0  0  1  0            999 V2000
  -28.0282   32.4836  -46.1893 C   0  0  0  0  0  0
  -27.4437   31.1304  -46.6333 C   0  0  0  0  0  0
  -26.2071   31.3081  -47.5195 C   0  0  0  0  0  0
  -26.4724   31.3657  -48.8953 C   0  0  0  0  0  0
  -25.4584   31.5723  -49.8201 C   0  0  0  0  0  0
  -24.1562   31.7388  -49.3768 C   0  0  0  0  0  0
  -23.8750   31.6837  -48.0154 C   0  0  0  0  0  0
  -24.8679   31.4479  -47.0412 C   0  0  0  0  0  0
  -24.4301   31.3562  -45.5899 C   0  0  0  0  0  0
  -23.0888   31.1385  -45.2167 C   0  0  0  0  0  0
  -22.7621   31.0504  -43.8608 C   0  0  0  0  0  0
  -23.7288   31.1133  -42.9095 N   0  0  0  0  0  0
  -25.0035   31.2871  -43.3287 C   0  0  0  0  0  0
  -25.3786   31.4561  -44.6184 N   0  0  0  0  0  0
  -26.3095   31.1930  -42.1381 S   0  0  0  0  0  0
  -25.6463   30.4749  -40.5963 C   0  0  0  0  0  0
  -26.7050   30.0092  -39.5705 C   0  0  0  0  0  0
  -27.6874   28.9312  -40.0928 C   0  0  0  0  0  0
  -28.9864   28.7978  -39.2635 C   0  0  0  0  0  0
  -29.0252   27.6450  -38.2079 C   0  0  0  0  0  0
  -29.9722   26.4690  -38.5225 C   0  0  0  0  0  0
  -30.6130   26.4690  -39.5810 O   0  0  0  0  0  0
  -30.1306   25.5331  -37.5737 N   0  0  0  0  0  0
  -31.0130   24.4690  -37.8254 O   0  0  0  0  0  0
  -21.4355   30.8690  -43.5810 O   0  0  0  0  0  0
  -28.9205   32.3548  -45.5810 H   0  0  0  0  0  0
  -27.3141   33.0624  -45.6037 H   0  0  0  0  0  0
  -28.3122   33.0884  -47.0514 H   0  0  0  0  0  0
  -28.2130   30.5860  -47.1810 H   0  0  0  0  0  0
  -27.2513   30.4689  -45.7922 H   0  0  0  0  0  0
  -27.4851   31.2691  -49.2592 H   0  0  0  0  0  0
  -25.6869   31.6264  -50.8746 H   0  0  0  0  0  0
  -23.3620   31.9222  -50.0859 H   0  0  0  0  0  0
  -22.8453   31.8463  -47.7417 H   0  0  0  0  0  0
  -22.3009   31.0312  -45.9446 H   0  0  0  0  0  0
  -24.9873   31.2137  -40.1377 H   0  0  0  0  0  0
  -25.0130   29.6312  -40.8655 H   0  0  0  0  0  0
  -27.2610   30.8918  -39.2521 H   0  0  0  0  0  0
  -26.2058   29.6377  -38.6742 H   0  0  0  0  0  0
  -27.1831   27.9682  -40.1880 H   0  0  0  0  0  0
  -27.9826   29.1978  -41.1080 H   0  0  0  0  0  0
  -29.8124   28.7296  -39.9740 H   0  0  0  0  0  0
  -29.1848   29.7424  -38.7552 H   0  0  0  0  0  0
  -29.4130   28.0671  -37.2775 H   0  0  0  0  0  0
  -28.0242   27.2690  -37.9906 H   0  0  0  0  0  0
  -29.6683   25.4693  -36.6760 H   0  0  0  0  0  0
  -30.4293   23.6999  -37.9196 H   0  0  0  0  0  0
  -20.8960   30.7133  -44.3661 H   0  0  0  0  0  0
  1  2  1  0  0  0
  1 26  1  0  0  0
  1 27  1  0  0  0
  1 28  1  0  0  0
  2  3  1  0  0  0
  2 29  1  0  0  0
  2 30  1  0  0  0
  3  8  1  0  0  0
  3  4  2  0  0  0
  4  5  1  0  0  0
  4 31  1  0  0  0
  5  6  2  0  0  0
  5 32  1  0  0  0
  6  7  1  0  0  0
  6 33  1  0  0  0
  7  8  2  0  0  0
  7 34  1  0  0  0
  8  9  1  0  0  0
  9 14  1  0  0  0
  9 10  2  0  0  0
 10 11  1  0  0  0
 10 35  1  0  0  0
 11 12  2  0  0  0
 11 25  1  0  0  0
 12 13  1  0  0  0
 13 14  2  0  0  0
 13 15  1  0  0  0
 15 16  1  0  0  0
 16 17  1  0  0  0
 16 36  1  0  0  0
 16 37  1  0  0  0
 17 18  1  0  0  0
 17 38  1  0  0  0
 17 39  1  0  0  0
 18 19  1  0  0  0
 18 40  1  0  0  0
 18 41  1  0  0  0
 19 20  1  0  0  0
 19 42  1  0  0  0
 19 43  1  0  0  0
 20 21  1  0  0  0
 20 44  1  0  0  0
 20 45  1  0  0  0
 21 22  2  0  0  0
 21 23  1  0  0  0
 23 24  1  0  0  0
 23 46  1  0  0  0
 24 47  1  0  0  0
 25 48  1  0  0  0
M  END
> <s_m_entry_id>
53511

> <s_m_entry_name>
ligand_docking-pose.4

> <s_m_Source_Path>
/home/csk/Desktop/cluster/DUD-E-result/hdac8

> <s_m_Source_File>
ligand_docking-pose.sdf

> <i_m_Source_File_Index>
4

> <i_lp_mmshare_version>
53161

> <r_lp_tautomer_probability>
0.0660144953277732

> <s_lp_Force_Field>
OPLS_2005

> <r_lp_Energy>
20.070707

> <b_lp_Chiralities_Consistent>
1

> <s_lp_Variant>
331388-3

> <s_i_glide_gridfile>
glide-grid_3f07

> <i_i_glide_lignum>
252

> <i_i_glide_rotatable_bonds>
12

> <r_i_docking_score>
-8.60664332271421

> <r_i_glide_ligand_efficiency>
-0.344265732908568

> <r_i_glide_ligand_efficiency_sa>
-1.00663910860342

> <r_i_glide_ligand_efficiency_ln>
-2.04003238777076

> <r_i_glide_gscore>
-8.60664332271421

> <r_i_glide_lipo>
-1.06472922379435

> <r_i_glide_hbond>
-0.576

> <r_i_glide_metal>
-2.3

> <r_i_glide_rewards>
-1.02926940829193

> <r_i_glide_evdw>
-27.3213405609131

> <r_i_glide_ecoul>
-22.9529228210449

> <r_i_glide_erotb>
1.32195087388711

> <r_i_glide_esite>
-0.149590113312648

> <r_i_glide_emodel>
-76.1512646828255

> <r_i_glide_energy>
-50.274263381958

> <r_i_glide_einternal>
11.5029592514038

> <i_i_glide_confnum>
332

> <i_i_glide_posenum>
266

> <r_i_glide_eff_state_penalty>
0

> <i_f3d_flags>
0

> <s_user_duplicate_titles>
331388

> <s_m_subgroup_title>
dock_pv

> <s_m_subgroupid>
dock_pv1

> <b_m_subgroup_collapsed>
0

$$$$
246367
                    3D
 Schrodinger Suite 2021-1.
 44 46  0  0  1  0            999 V2000
  -27.7157   34.8183  -43.3174 C   0  0  0  0  0  0
  -28.1667   34.7959  -44.6420 C   0  0  0  0  0  0
  -27.8169   33.7163  -45.4899 C   0  0  0  0  0  0
  -28.2173   33.5865  -46.8458 C   0  0  0  0  0  0
  -27.8113   32.4690  -47.5871 C   0  0  0  0  0  0
  -27.0160   31.4667  -47.0194 C   0  0  0  0  0  0
  -26.6366   31.6091  -45.6868 C   0  0  0  0  0  0
  -27.0130   32.6904  -44.9383 C   0  0  0  0  0  0
  -26.5624   32.6994  -43.6057 C   0  0  0  0  0  0
  -26.9246   33.7852  -42.8040 C   0  0  0  0  0  0
  -25.7758   31.5851  -43.2892 N   0  0  0  0  0  0
  -25.7104   30.4683  -44.6619 S   0  0  0  0  0  0
  -24.3278   30.3137  -45.1279 O   0  0  0  0  0  0
  -26.5041   29.2690  -44.3774 O   0  0  0  0  0  0
  -25.4810   31.1036  -41.9473 C   0  0  0  0  0  0
  -26.6929   30.5096  -41.2012 C   0  0  0  0  0  0
  -26.3140   30.0583  -39.7810 C   0  0  0  0  0  0
  -27.4847   29.5881  -38.8998 C   0  0  0  0  0  0
  -28.2253   28.3159  -39.3724 C   0  0  0  0  0  0
  -28.8802   27.5837  -38.1759 C   0  0  0  0  0  0
  -29.8832   26.4690  -38.4982 C   0  0  0  0  0  0
  -30.4773   26.4690  -39.5809 O   0  0  0  0  0  0
  -30.1250   25.5652  -37.5353 N   0  0  0  0  0  0
  -31.0130   24.5127  -37.8123 O   0  0  0  0  0  0
  -27.9770   35.6511  -42.6806 H   0  0  0  0  0  0
  -28.7768   35.6002  -45.0274 H   0  0  0  0  0  0
  -28.8404   34.3464  -47.2956 H   0  0  0  0  0  0
  -28.1310   32.3716  -48.6148 H   0  0  0  0  0  0
  -26.7344   30.6069  -47.6093 H   0  0  0  0  0  0
  -26.5901   33.8431  -41.7783 H   0  0  0  0  0  0
  -25.0717   31.9191  -41.3487 H   0  0  0  0  0  0
  -24.6713   30.3734  -41.9726 H   0  0  0  0  0  0
  -27.0996   29.6690  -41.7641 H   0  0  0  0  0  0
  -27.4927   31.2499  -41.1551 H   0  0  0  0  0  0
  -25.8229   30.8883  -39.2688 H   0  0  0  0  0  0
  -25.5645   29.2690  -39.8372 H   0  0  0  0  0  0
  -28.2021   30.4012  -38.7810 H   0  0  0  0  0  0
  -27.0720   29.4125  -37.9050 H   0  0  0  0  0  0
  -27.5234   27.6370  -39.8617 H   0  0  0  0  0  0
  -28.9645   28.5957  -40.1245 H   0  0  0  0  0  0
  -29.4122   28.3043  -37.5524 H   0  0  0  0  0  0
  -28.0716   27.1728  -37.5810 H   0  0  0  0  0  0
  -29.6960   25.4996  -36.6213 H   0  0  0  0  0  0
  -30.4387   23.7336  -37.8714 H   0  0  0  0  0  0
  1 10  1  0  0  0
  1  2  2  0  0  0
  1 25  1  0  0  0
  2  3  1  0  0  0
  2 26  1  0  0  0
  3  8  2  0  0  0
  3  4  1  0  0  0
  4  5  2  0  0  0
  4 27  1  0  0  0
  5  6  1  0  0  0
  5 28  1  0  0  0
  6  7  2  0  0  0
  6 29  1  0  0  0
  7 12  1  0  0  0
  7  8  1  0  0  0
  8  9  1  0  0  0
  9 10  2  0  0  0
  9 11  1  0  0  0
 10 30  1  0  0  0
 11 12  1  0  0  0
 11 15  1  0  0  0
 12 13  2  0  0  0
 12 14  2  0  0  0
 15 16  1  0  0  0
 15 31  1  0  0  0
 15 32  1  0  0  0
 16 17  1  0  0  0
 16 33  1  0  0  0
 16 34  1  0  0  0
 17 18  1  0  0  0
 17 35  1  0  0  0
 17 36  1  0  0  0
 18 19  1  0  0  0
 18 37  1  0  0  0
 18 38  1  0  0  0
 19 20  1  0  0  0
 19 39  1  0  0  0
 19 40  1  0  0  0
 20 21  1  0  0  0
 20 41  1  0  0  0
 20 42  1  0  0  0
 21 22  2  0  0  0
 21 23  1  0  0  0
 23 24  1  0  0  0
 23 43  1  0  0  0
 24 44  1  0  0  0
M  END
> <s_m_entry_id>
53512

> <s_m_entry_name>
ligand_docking-pose.5

> <s_m_Source_Path>
/home/csk/Desktop/cluster/DUD-E-result/hdac8

> <s_m_Source_File>
ligand_docking-pose.sdf

> <i_m_Source_File_Index>
5

> <i_lp_mmshare_version>
53161

> <r_lp_tautomer_probability>
1

> <s_lp_Force_Field>
OPLS_2005

> <r_lp_Energy>
49.34724

> <b_lp_Chiralities_Consistent>
1

> <s_lp_Variant>
246367-1

> <s_i_glide_gridfile>
glide-grid_3f07

> <i_i_glide_lignum>
5

> <i_i_glide_rotatable_bonds>
9

> <r_i_docking_score>
-8.47655935708923

> <r_i_glide_ligand_efficiency>
-0.353189973212051

> <r_i_glide_ligand_efficiency_sa>
-1.01877617312469

> <r_i_glide_ligand_efficiency_ln>
-2.02882961811512

> <r_i_glide_gscore>
-8.47655935708923

> <r_i_glide_lipo>
-1.29345684608502

> <r_i_glide_hbond>
-0.304

> <r_i_glide_metal>
-2.3

> <r_i_glide_rewards>
-1.12483802129567

> <r_i_glide_evdw>
-26.9778175354004

> <r_i_glide_ecoul>
-20.4314346313477

> <r_i_glide_erotb>
1.09769369089081

> <r_i_glide_esite>
-0.13835210912718

> <r_i_glide_emodel>
-72.9158698546917

> <r_i_glide_energy>
-47.409252166748

> <r_i_glide_einternal>
9.24572277069092

> <i_i_glide_confnum>
10

> <i_i_glide_posenum>
99

> <r_i_glide_eff_state_penalty>
0

> <i_f3d_flags>
0

> <s_user_duplicate_titles>
246367

> <s_m_subgroup_title>
dock_pv

> <s_m_subgroupid>
dock_pv1

> <b_m_subgroup_collapsed>
0

$$$$
329839
                    3D
 Schrodinger Suite 2021-1.
 41 43  0  0  1  0            999 V2000
  -23.2021   30.6388  -44.3629 C   0  0  0  0  0  0
  -24.3295   31.5793  -43.8723 C   0  0  1  0  0  0
  -25.3821   31.9564  -44.9400 C   0  0  0  0  0  0
  -26.4071   32.8456  -44.5914 C   0  0  0  0  0  0
  -27.4130   33.1592  -45.5018 C   0  0  0  0  0  0
  -27.3992   32.5849  -46.7698 C   0  0  0  0  0  0
  -26.3807   31.7103  -47.1376 C   0  0  0  0  0  0
  -25.3721   31.4007  -46.2282 C   0  0  0  0  0  0
  -24.9298   31.0868  -42.6059 N   0  0  0  0  0  0
  -24.6544   31.6253  -41.3872 C   0  0  0  0  0  0
  -23.8691   32.5402  -41.1447 O   0  0  0  0  0  0
  -25.5124   30.8793  -40.4263 C   0  0  0  0  0  0
  -25.6688   30.9903  -39.0455 C   0  0  0  0  0  0
  -26.6130   30.1780  -38.4047 C   0  0  0  0  0  0
  -27.3819   29.2450  -39.1205 C   0  0  0  0  0  0
  -27.1749   29.1491  -40.5034 C   0  0  0  0  0  0
  -26.2411   29.9703  -41.1353 C   0  0  0  0  0  0
  -25.8302   30.0690  -42.5586 C   0  0  0  0  0  0
  -26.2130   29.3776  -43.5030 O   0  0  0  0  0  0
  -28.3888   28.4021  -38.4237 C   0  0  0  0  0  0
  -28.7724   27.1514  -38.7795 C   0  0  0  0  0  0
  -29.8130   26.3801  -38.1239 C   0  0  0  0  0  0
  -30.5956   25.6861  -38.7810 O   0  0  0  0  0  0
  -29.8471   26.4690  -36.7842 N   0  0  0  0  0  0
  -30.8453   25.7679  -36.0914 O   0  0  0  0  0  0
  -23.8281   32.5260  -43.6589 H   0  0  0  0  0  0
  -22.6673   31.0657  -45.2123 H   0  0  0  0  0  0
  -22.4616   30.4690  -43.5810 H   0  0  0  0  0  0
  -23.5977   29.6690  -44.6640 H   0  0  0  0  0  0
  -26.4320   33.2866  -43.6052 H   0  0  0  0  0  0
  -28.2047   33.8393  -45.2241 H   0  0  0  0  0  0
  -28.1841   32.8198  -47.4744 H   0  0  0  0  0  0
  -26.3785   31.2689  -48.1234 H   0  0  0  0  0  0
  -24.6039   30.7079  -46.5332 H   0  0  0  0  0  0
  -25.0897   31.6973  -38.4702 H   0  0  0  0  0  0
  -26.7494   30.3006  -37.3434 H   0  0  0  0  0  0
  -27.7647   28.4690  -41.0857 H   0  0  0  0  0  0
  -28.8730   28.8690  -37.5810 H   0  0  0  0  0  0
  -28.3019   26.6526  -39.6103 H   0  0  0  0  0  0
  -29.2278   27.0086  -36.1796 H   0  0  0  0  0  0
  -31.4234   26.4581  -35.7537 H   0  0  0  0  0  0
  1  2  1  0  0  0
  1 27  1  0  0  0
  1 28  1  0  0  0
  1 29  1  0  0  0
  2 26  1  0  0  0
  2  3  1  0  0  0
  2  9  1  0  0  0
  3  8  1  0  0  0
  3  4  2  0  0  0
  4  5  1  0  0  0
  4 30  1  0  0  0
  5  6  2  0  0  0
  5 31  1  0  0  0
  6  7  1  0  0  0
  6 32  1  0  0  0
  7  8  2  0  0  0
  7 33  1  0  0  0
  8 34  1  0  0  0
  9 18  1  0  0  0
  9 10  1  0  0  0
 10 11  2  0  0  0
 10 12  1  0  0  0
 12 17  2  0  0  0
 12 13  1  0  0  0
 13 14  2  0  0  0
 13 35  1  0  0  0
 14 15  1  0  0  0
 14 36  1  0  0  0
 15 16  2  0  0  0
 15 20  1  0  0  0
 16 17  1  0  0  0
 16 37  1  0  0  0
 17 18  1  0  0  0
 18 19  2  0  0  0
 20 21  2  0  0  0
 20 38  1  0  0  0
 21 22  1  0  0  0
 21 39  1  0  0  0
 22 23  2  0  0  0
 22 24  1  0  0  0
 24 25  1  0  0  0
 24 40  1  0  0  0
 25 41  1  0  0  0
M  END
> <s_m_entry_id>
53516

> <s_m_entry_name>
ligand_docking-pose.9

> <s_m_Source_Path>
/home/csk/Desktop/cluster/DUD-E-result/hdac8

> <s_m_Source_File>
ligand_docking-pose.sdf

> <i_m_Source_File_Index>
9

> <i_lp_mmshare_version>
53161

> <r_lp_tautomer_probability>
1

> <s_lp_Force_Field>
OPLS_2005

> <r_lp_Energy>
44.554114

> <b_lp_Chiralities_Consistent>
1

> <s_lp_Variant>
329839-1

> <s_i_glide_gridfile>
glide-grid_3f07

> <i_i_glide_lignum>
316

> <i_i_glide_rotatable_bonds>
6

> <r_i_docking_score>
-8.39170628596027

> <r_i_glide_ligand_efficiency>
-0.335668251438411

> <r_i_glide_ligand_efficiency_sa>
-0.9814999203077

> <r_i_glide_ligand_efficiency_ln>
-1.98908586891685

> <r_i_glide_gscore>
-8.39170628596027

> <r_i_glide_lipo>
-1.44083060363817

> <r_i_glide_hbond>
-0.536455625336528

> <r_i_glide_metal>
-2.3

> <r_i_glide_rewards>
-1.3006801532092

> <r_i_glide_evdw>
-33.6918029785156

> <r_i_glide_ecoul>
-12.186842918396

> <r_i_glide_erotb>
0.83469820120934

> <r_i_glide_esite>
-0.13582151830053

> <r_i_glide_emodel>
-69.6782716852581

> <r_i_glide_energy>
-45.8786458969116

> <r_i_glide_einternal>
6.03716373443604

> <i_i_glide_confnum>
21

> <i_i_glide_posenum>
55

> <r_i_glide_eff_state_penalty>
0

> <i_f3d_flags>
0

> <s_user_duplicate_titles>
329839

> <s_m_subgroup_title>
dock_pv

> <s_m_subgroupid>
dock_pv1

> <b_m_subgroup_collapsed>
0

$$$$
354072
                    3D
 Schrodinger Suite 2021-1.
 46 47  0  0  1  0            999 V2000
  -27.0092   31.5350  -47.8143 C   0  0  0  0  0  0
  -26.3220   30.8691  -46.7595 O   0  0  0  0  0  0
  -26.3762   31.3952  -45.4839 C   0  0  0  0  0  0
  -25.8123   30.6295  -44.4666 C   0  0  0  0  0  0
  -25.8562   31.0617  -43.1441 C   0  0  0  0  0  0
  -26.4677   32.2781  -42.8108 C   0  0  0  0  0  0
  -27.0129   33.0787  -43.8257 C   0  0  0  0  0  0
  -26.9628   32.6268  -45.1559 C   0  0  0  0  0  0
  -27.6023   34.2729  -43.4464 O   0  0  0  0  0  0
  -28.1926   35.1124  -44.4329 C   0  0  0  0  0  0
  -26.5909   32.7187  -41.3442 C   0  0  0  0  0  0
  -26.5777   31.6273  -40.3551 N   0  0  0  0  0  0
  -25.4269   31.5827  -39.4265 C   0  0  0  0  0  0
  -25.0852   30.1666  -38.9284 C   0  0  0  0  0  0
  -26.3411   29.3473  -38.7572 C   0  0  0  0  0  0
  -27.5293   29.6680  -39.3034 C   0  0  0  0  0  0
  -27.6788   30.8261  -40.1856 C   0  0  0  0  0  0
  -28.7363   31.0507  -40.7809 O   0  0  0  0  0  0
  -28.7824   28.7955  -39.0971 C   0  0  0  0  0  0
  -28.5546   27.3479  -38.5820 C   0  0  0  0  0  0
  -29.8129   26.4689  -38.5856 C   0  0  0  0  0  0
  -30.5592   26.4690  -39.5730 O   0  0  0  0  0  0
  -30.0347   25.7064  -37.5031 N   0  0  0  0  0  0
  -31.1197   24.8177  -37.5208 O   0  0  0  0  0  0
  -26.9454   30.9355  -48.7220 H   0  0  0  0  0  0
  -28.0678   31.6685  -47.5833 H   0  0  0  0  0  0
  -26.5642   32.5078  -48.0273 H   0  0  0  0  0  0
  -25.3520   29.6825  -44.7061 H   0  0  0  0  0  0
  -25.4238   30.4364  -42.3765 H   0  0  0  0  0  0
  -27.3911   33.2286  -45.9391 H   0  0  0  0  0  0
  -28.6005   36.0012  -43.9519 H   0  0  0  0  0  0
  -27.4590   35.4432  -45.1699 H   0  0  0  0  0  0
  -29.0150   34.6103  -44.9449 H   0  0  0  0  0  0
  -27.5114   33.2901  -41.2160 H   0  0  0  0  0  0
  -25.7788   33.4158  -41.1346 H   0  0  0  0  0  0
  -25.8119   32.0694  -38.5299 H   0  0  0  0  0  0
  -24.5765   32.1937  -39.7333 H   0  0  0  0  0  0
  -24.5356   30.2296  -37.9883 H   0  0  0  0  0  0
  -24.4280   29.6690  -39.6403 H   0  0  0  0  0  0
  -26.2647   28.4685  -38.1399 H   0  0  0  0  0  0
  -29.3322   28.7464  -40.0396 H   0  0  0  0  0  0
  -29.4131   29.3304  -38.3859 H   0  0  0  0  0  0
  -28.1269   27.3662  -37.5816 H   0  0  0  0  0  0
  -27.8190   26.8519  -39.2164 H   0  0  0  0  0  0
  -29.4669   25.6295  -36.6696 H   0  0  0  0  0  0
  -30.7067   23.9464  -37.5806 H   0  0  0  0  0  0
  1  2  1  0  0  0
  1 25  1  0  0  0
  1 26  1  0  0  0
  1 27  1  0  0  0
  2  3  1  0  0  0
  3  8  1  0  0  0
  3  4  2  0  0  0
  4  5  1  0  0  0
  4 28  1  0  0  0
  5  6  2  0  0  0
  5 29  1  0  0  0
  6  7  1  0  0  0
  6 11  1  0  0  0
  7  8  2  0  0  0
  7  9  1  0  0  0
  8 30  1  0  0  0
  9 10  1  0  0  0
 10 31  1  0  0  0
 10 32  1  0  0  0
 10 33  1  0  0  0
 11 12  1  0  0  0
 11 34  1  0  0  0
 11 35  1  0  0  0
 12 17  1  0  0  0
 12 13  1  0  0  0
 13 14  1  0  0  0
 13 36  1  0  0  0
 13 37  1  0  0  0
 14 15  1  0  0  0
 14 38  1  0  0  0
 14 39  1  0  0  0
 15 16  2  0  0  0
 15 40  1  0  0  0
 16 17  1  0  0  0
 16 19  1  0  0  0
 17 18  2  0  0  0
 19 20  1  0  0  0
 19 41  1  0  0  0
 19 42  1  0  0  0
 20 21  1  0  0  0
 20 43  1  0  0  0
 20 44  1  0  0  0
 21 22  2  0  0  0
 21 23  1  0  0  0
 23 24  1  0  0  0
 23 45  1  0  0  0
 24 46  1  0  0  0
M  END
> <s_m_entry_id>
53519

> <s_m_entry_name>
ligand_docking-pose.12

> <s_m_Source_Path>
/home/csk/Desktop/cluster/DUD-E-result/hdac8

> <s_m_Source_File>
ligand_docking-pose.sdf

> <i_m_Source_File_Index>
12

> <i_lp_mmshare_version>
53161

> <r_lp_tautomer_probability>
1

> <s_lp_Force_Field>
OPLS_2005

> <r_lp_Energy>
36.21635

> <b_lp_Chiralities_Consistent>
1

> <s_lp_Variant>
354072-1

> <s_i_glide_gridfile>
glide-grid_3f07

> <i_i_glide_lignum>
371

> <i_i_glide_rotatable_bonds>
9

> <r_i_docking_score>
-8.34286357548785

> <r_i_glide_ligand_efficiency>
-0.347619315645327

> <r_i_glide_ligand_efficiency_sa>
-1.00270761617784

> <r_i_glide_ligand_efficiency_ln>
-1.99683008267825

> <r_i_glide_gscore>
-8.34286357548785

> <r_i_glide_lipo>
-1.19654809031363

> <r_i_glide_hbond>
-0.32

> <r_i_glide_metal>
-2.3

> <r_i_glide_rewards>
-1.26221255710628

> <r_i_glide_evdw>
-28.9273777008057

> <r_i_glide_ecoul>
-17.7858791351318

> <r_i_glide_erotb>
1.0121319832631

> <r_i_glide_esite>
-0.161984156020984

> <r_i_glide_emodel>
-73.6798861102528

> <r_i_glide_energy>
-46.7132568359375

> <r_i_glide_einternal>
6.06772136688232

> <i_i_glide_confnum>
67

> <i_i_glide_posenum>
176

> <r_i_glide_eff_state_penalty>
0

> <i_f3d_flags>
0

> <s_user_duplicate_titles>
354072

> <s_m_subgroup_title>
dock_pv

> <s_m_subgroupid>
dock_pv1

> <b_m_subgroup_collapsed>
0

$$$$
235356
                    3D
 Schrodinger Suite 2021-1.
 43 45  0  0  1  0            999 V2000
  -26.3145   31.3824  -47.3062 C   0  0  0  0  0  0
  -25.2148   31.3093  -48.1575 C   0  0  0  0  0  0
  -23.9067   31.2690  -47.6710 C   0  0  0  0  0  0
  -23.7459   31.3085  -46.2813 C   0  0  0  0  0  0
  -24.8529   31.4055  -45.3826 C   0  0  0  0  0  0
  -26.1511   31.4337  -45.9222 C   0  0  0  0  0  0
  -24.3285   31.4690  -44.0415 C   0  0  0  0  0  0
  -22.9542   31.3657  -44.1779 C   0  0  0  0  0  0
  -22.6130   31.2690  -45.5011 N   0  0  0  0  0  0
  -25.1601   31.6265  -42.7867 C   0  0  0  0  0  0
  -24.3533   31.7723  -41.5768 N   0  0  1  0  0  0
  -25.1180   32.1815  -40.3953 C   0  0  0  0  0  0
  -26.1783   31.1548  -40.0120 C   0  0  0  0  0  0
  -27.4312   31.1936  -40.6254 C   0  0  0  0  0  0
  -28.3591   30.1921  -40.3714 C   0  0  0  0  0  0
  -28.0573   29.1623  -39.4763 C   0  0  0  0  0  0
  -26.8382   29.1788  -38.7931 C   0  0  0  0  0  0
  -25.8948   30.1662  -39.0680 C   0  0  0  0  0  0
  -29.0545   28.0953  -39.2992 C   0  0  0  0  0  0
  -29.1056   27.1461  -38.3385 C   0  0  0  0  0  0
  -30.1810   26.1797  -38.2695 C   0  0  0  0  0  0
  -31.0096   26.0690  -39.1810 O   0  0  0  0  0  0
  -30.2130   25.4510  -37.1427 N   0  0  0  0  0  0
  -31.2083   24.4690  -37.0137 O   0  0  0  0  0  0
  -21.6512   31.1711  -45.8058 H   0  0  0  0  0  0
  -27.3103   31.4077  -47.7275 H   0  0  0  0  0  0
  -25.3820   31.2833  -49.2247 H   0  0  0  0  0  0
  -23.0623   31.2081  -48.3419 H   0  0  0  0  0  0
  -27.0135   31.5026  -45.2758 H   0  0  0  0  0  0
  -22.1775   31.3690  -43.4253 H   0  0  0  0  0  0
  -25.8174   30.7629  -42.6821 H   0  0  0  0  0  0
  -25.8024   32.5027  -42.8911 H   0  0  0  0  0  0
  -23.8604   30.9165  -41.3677 H   0  0  0  0  0  0
  -25.5609   33.1633  -40.5717 H   0  0  0  0  0  0
  -24.3980   32.2760  -39.5810 H   0  0  0  0  0  0
  -27.6621   31.9681  -41.3418 H   0  0  0  0  0  0
  -29.3036   30.2111  -40.8965 H   0  0  0  0  0  0
  -26.5956   28.4055  -38.0808 H   0  0  0  0  0  0
  -24.9346   30.1434  -38.5722 H   0  0  0  0  0  0
  -29.8227   28.1067  -40.0553 H   0  0  0  0  0  0
  -28.3442   27.0971  -37.5810 H   0  0  0  0  0  0
  -29.5695   25.4771  -36.3631 H   0  0  0  0  0  0
  -30.7380   23.6430  -37.1810 H   0  0  0  0  0  0
  1  6  1  0  0  0
  1  2  2  0  0  0
  1 26  1  0  0  0
  2  3  1  0  0  0
  2 27  1  0  0  0
  3  4  2  0  0  0
  3 28  1  0  0  0
  4  9  1  0  0  0
  4  5  1  0  0  0
  5  6  2  0  0  0
  5  7  1  0  0  0
  6 29  1  0  0  0
  7  8  2  0  0  0
  7 10  1  0  0  0
  8  9  1  0  0  0
  8 30  1  0  0  0
  9 25  1  0  0  0
 10 11  1  0  0  0
 10 31  1  0  0  0
 10 32  1  0  0  0
 11 12  1  0  0  0
 11 33  1  0  0  0
 12 13  1  0  0  0
 12 34  1  0  0  0
 12 35  1  0  0  0
 13 18  1  0  0  0
 13 14  2  0  0  0
 14 15  1  0  0  0
 14 36  1  0  0  0
 15 16  2  0  0  0
 15 37  1  0  0  0
 16 17  1  0  0  0
 16 19  1  0  0  0
 17 18  2  0  0  0
 17 38  1  0  0  0
 18 39  1  0  0  0
 19 20  2  0  0  0
 19 40  1  0  0  0
 20 21  1  0  0  0
 20 41  1  0  0  0
 21 22  2  0  0  0
 21 23  1  0  0  0
 23 24  1  0  0  0
 23 42  1  0  0  0
 24 43  1  0  0  0
M  END
> <s_m_entry_id>
53521

> <s_m_entry_name>
ligand_docking-pose.14

> <s_m_Source_Path>
/home/csk/Desktop/cluster/DUD-E-result/hdac8

> <s_m_Source_File>
ligand_docking-pose.sdf

> <i_m_Source_File_Index>
14

> <i_lp_mmshare_version>
53161

> <r_lp_tautomer_probability>
1

> <s_lp_Force_Field>
OPLS_2005

> <r_lp_Energy>
21.614838

> <b_lp_Chiralities_Consistent>
1

> <s_lp_Variant>
235356-1

> <s_i_glide_gridfile>
glide-grid_3f07

> <i_i_glide_lignum>
37

> <i_i_glide_rotatable_bonds>
8

> <r_i_docking_score>
-8.18365144605823

> <r_i_glide_ligand_efficiency>
-0.340985476919093

> <r_i_glide_ligand_efficiency_sa>
-0.983572314093308

> <r_i_glide_ligand_efficiency_ln>
-1.95872331433717

> <r_i_glide_gscore>
-8.18365144605823

> <r_i_glide_lipo>
-1.16700776892525

> <r_i_glide_hbond>
-0.467087394227635

> <r_i_glide_metal>
-2.3

> <r_i_glide_rewards>
-1.48324132432768

> <r_i_glide_evdw>
-35.0053558349609

> <r_i_glide_ecoul>
-13.1875715255737

> <r_i_glide_erotb>
1.08552817652629

> <r_i_glide_esite>
-0.123439614519844

> <r_i_glide_emodel>
-75.0240107410364

> <r_i_glide_energy>
-48.1929273605347

> <r_i_glide_einternal>
3.73943281173706

> <i_i_glide_confnum>
2

> <i_i_glide_posenum>
302

> <r_i_glide_eff_state_penalty>
0

> <i_f3d_flags>
0

> <s_user_duplicate_titles>
235356

> <s_m_subgroup_title>
dock_pv

> <s_m_subgroupid>
dock_pv1

> <b_m_subgroup_collapsed>
0

$$$$
235726
                    3D
 Schrodinger Suite 2021-1.
 49 51  0  0  1  0            999 V2000
  -22.9043   31.2186  -48.4346 C   0  0  0  0  0  0
  -23.6108   31.2002  -49.6346 C   0  0  0  0  0  0
  -25.0058   31.2289  -49.6698 C   0  0  0  0  0  0
  -25.6699   31.2690  -48.4390 C   0  0  0  0  0  0
  -24.9721   31.2907  -47.1906 C   0  0  0  0  0  0
  -23.5667   31.2690  -47.2090 C   0  0  0  0  0  0
  -25.9576   31.3227  -46.1396 C   0  0  0  0  0  0
  -27.1831   31.3182  -46.7786 C   0  0  0  0  0  0
  -27.0130   31.2833  -48.1379 N   0  0  0  0  0  0
  -25.6986   31.3547  -44.6503 C   0  0  0  0  0  0
  -25.1969   32.7340  -44.1729 C   0  0  0  0  0  0
  -25.0310   32.8430  -42.6472 C   0  0  0  0  0  0
  -23.9710   31.9526  -42.1879 N   0  0  1  0  0  0
  -23.9967   31.7230  -40.7446 C   0  0  0  0  0  0
  -25.1748   30.8888  -40.2316 C   0  0  0  0  0  0
  -25.8882   30.0161  -41.0599 C   0  0  0  0  0  0
  -26.9367   29.2643  -40.5409 C   0  0  0  0  0  0
  -27.2967   29.3711  -39.1984 C   0  0  0  0  0  0
  -26.5966   30.2556  -38.3810 C   0  0  0  0  0  0
  -25.5362   30.9983  -38.8895 C   0  0  0  0  0  0
  -28.3948   28.5619  -38.6421 C   0  0  0  0  0  0
  -28.6312   27.2675  -38.9429 C   0  0  0  0  0  0
  -29.7530   26.5379  -38.4154 C   0  0  0  0  0  0
  -30.5974   26.0690  -39.1810 O   0  0  0  0  0  0
  -29.8130   26.4690  -37.0775 N   0  0  0  0  0  0
  -30.8738   25.7588  -36.4945 O   0  0  0  0  0  0
  -27.7944   31.2590  -48.7810 H   0  0  0  0  0  0
  -21.8234   31.1985  -48.4544 H   0  0  0  0  0  0
  -23.0591   31.1722  -50.5636 H   0  0  0  0  0  0
  -25.5417   31.2259  -50.6078 H   0  0  0  0  0  0
  -23.0032   31.2852  -46.2874 H   0  0  0  0  0  0
  -28.1826   31.3320  -46.3664 H   0  0  0  0  0  0
  -24.9781   30.5795  -44.3883 H   0  0  0  0  0  0
  -26.6105   31.0992  -44.1080 H   0  0  0  0  0  0
  -25.9118   33.4949  -44.4893 H   0  0  0  0  0  0
  -24.2566   32.9884  -44.6650 H   0  0  0  0  0  0
  -25.9806   32.5939  -42.1709 H   0  0  0  0  0  0
  -24.7853   33.8689  -42.3681 H   0  0  0  0  0  0
  -23.9273   31.0931  -42.7130 H   0  0  0  0  0  0
  -23.8628   32.6424  -40.1702 H   0  0  0  0  0  0
  -23.1093   31.1284  -40.5234 H   0  0  0  0  0  0
  -25.6270   29.8991  -42.0996 H   0  0  0  0  0  0
  -27.4653   28.5818  -41.1810 H   0  0  0  0  0  0
  -26.8581   30.3708  -37.3423 H   0  0  0  0  0  0
  -24.9982   31.6690  -38.2367 H   0  0  0  0  0  0
  -29.0694   29.0831  -37.9810 H   0  0  0  0  0  0
  -27.9815   26.7109  -39.6018 H   0  0  0  0  0  0
  -29.1537   26.8490  -36.4023 H   0  0  0  0  0  0
  -30.4578   24.9581  -36.1608 H   0  0  0  0  0  0
  1  6  1  0  0  0
  1  2  2  0  0  0
  1 28  1  0  0  0
  2  3  1  0  0  0
  2 29  1  0  0  0
  3  4  2  0  0  0
  3 30  1  0  0  0
  4  9  1  0  0  0
  4  5  1  0  0  0
  5  6  2  0  0  0
  5  7  1  0  0  0
  6 31  1  0  0  0
  7  8  2  0  0  0
  7 10  1  0  0  0
  8  9  1  0  0  0
  8 32  1  0  0  0
  9 27  1  0  0  0
 10 11  1  0  0  0
 10 33  1  0  0  0
 10 34  1  0  0  0
 11 12  1  0  0  0
 11 35  1  0  0  0
 11 36  1  0  0  0
 12 13  1  0  0  0
 12 37  1  0  0  0
 12 38  1  0  0  0
 13 14  1  0  0  0
 13 39  1  0  0  0
 14 15  1  0  0  0
 14 40  1  0  0  0
 14 41  1  0  0  0
 15 20  1  0  0  0
 15 16  2  0  0  0
 16 17  1  0  0  0
 16 42  1  0  0  0
 17 18  2  0  0  0
 17 43  1  0  0  0
 18 19  1  0  0  0
 18 21  1  0  0  0
 19 20  2  0  0  0
 19 44  1  0  0  0
 20 45  1  0  0  0
 21 22  2  0  0  0
 21 46  1  0  0  0
 22 23  1  0  0  0
 22 47  1  0  0  0
 23 24  2  0  0  0
 23 25  1  0  0  0
 25 26  1  0  0  0
 25 48  1  0  0  0
 26 49  1  0  0  0
M  END
> <s_m_entry_id>
53523

> <s_m_entry_name>
ligand_docking-pose.16

> <s_m_Source_Path>
/home/csk/Desktop/cluster/DUD-E-result/hdac8

> <s_m_Source_File>
ligand_docking-pose.sdf

> <i_m_Source_File_Index>
16

> <i_lp_mmshare_version>
53161

> <r_lp_tautomer_probability>
1

> <s_lp_Force_Field>
OPLS_2005

> <r_lp_Energy>
21.935511

> <b_lp_Chiralities_Consistent>
1

> <s_lp_Variant>
235726-1

> <s_i_glide_gridfile>
glide-grid_3f07

> <i_i_glide_lignum>
26

> <i_i_glide_rotatable_bonds>
10

> <r_i_docking_score>
-8.14720889019735

> <r_i_glide_ligand_efficiency>
-0.313354188084513

> <r_i_glide_ligand_efficiency_sa>
-0.92831054921118

> <r_i_glide_ligand_efficiency_ln>
-1.91334527469002

> <r_i_glide_gscore>
-8.14720889019735

> <r_i_glide_lipo>
-1.27642322001689

> <r_i_glide_hbond>
-0.708055077659106

> <r_i_glide_metal>
-2.3

> <r_i_glide_rewards>
-1.1704077571325

> <r_i_glide_evdw>
-30.2159214019775

> <r_i_glide_ecoul>
-15.0726146697998

> <r_i_glide_erotb>
1.24807928538972

> <r_i_glide_esite>
-0.168713850209726

> <r_i_glide_emodel>
-69.0944213873617

> <r_i_glide_energy>
-45.2885360717773

> <r_i_glide_einternal>
5.92671298980713

> <i_i_glide_confnum>
8

> <i_i_glide_posenum>
222

> <r_i_glide_eff_state_penalty>
0

> <i_f3d_flags>
0

> <s_user_duplicate_titles>
235726

> <s_m_subgroup_title>
dock_pv

> <s_m_subgroupid>
dock_pv1

> <b_m_subgroup_collapsed>
0

$$$$
37111
                    3D
 Schrodinger Suite 2021-1.
 44 46  0  0  1  0            999 V2000
  -23.1357   31.1738  -50.3031 C   0  0  0  0  0  0
  -24.4071   31.4336  -49.8010 C   0  0  0  0  0  0
  -24.6072   31.4813  -48.4241 C   0  0  0  0  0  0
  -23.5438   31.2691  -47.5328 C   0  0  0  0  0  0
  -22.2680   31.0299  -48.0655 C   0  0  0  0  0  0
  -22.0635   30.9727  -49.4407 C   0  0  0  0  0  0
  -23.7689   31.2786  -46.0522 C   0  0  0  0  0  0
  -22.7590   31.6868  -45.1710 C   0  0  0  0  0  0
  -22.9718   31.7071  -43.7956 C   0  0  0  0  0  0
  -24.2077   31.3261  -43.2627 C   0  0  0  0  0  0
  -25.2150   30.8910  -44.1351 C   0  0  0  0  0  0
  -24.9947   30.8699  -45.5092 C   0  0  0  0  0  0
  -24.4268   31.3813  -41.7687 C   0  0  0  0  0  0
  -23.4824   31.2690  -40.9873 O   0  0  0  0  0  0
  -25.6945   31.5808  -41.3685 N   0  0  0  0  0  0
  -26.1561   31.6128  -39.9806 C   0  0  0  0  0  0
  -27.0170   30.4025  -39.6431 C   0  0  0  0  0  0
  -28.2421   30.2132  -40.2811 C   0  0  0  0  0  0
  -29.0131   29.0952  -39.9810 C   0  0  0  0  0  0
  -28.5873   28.1513  -39.0390 C   0  0  0  0  0  0
  -27.3726   28.3682  -38.3857 C   0  0  0  0  0  0
  -26.5886   29.4788  -38.6918 C   0  0  0  0  0  0
  -29.4307   26.9308  -38.7419 C   0  0  0  0  0  0
  -30.2130   26.4694  -39.5810 O   0  0  0  0  0  0
  -29.4141   26.4691  -37.4901 N   0  0  0  0  0  0
  -30.2123   25.3470  -37.1864 O   0  0  0  0  0  0
  -22.9752   31.1395  -51.3694 H   0  0  0  0  0  0
  -25.2334   31.6050  -50.4755 H   0  0  0  0  0  0
  -25.6004   31.6930  -48.0563 H   0  0  0  0  0  0
  -21.4204   30.8688  -47.4169 H   0  0  0  0  0  0
  -21.0761   30.7756  -49.8341 H   0  0  0  0  0  0
  -21.7971   32.0068  -45.5439 H   0  0  0  0  0  0
  -22.1707   32.0377  -43.1482 H   0  0  0  0  0  0
  -26.1747   30.5615  -43.7635 H   0  0  0  0  0  0
  -25.7905   30.5194  -46.1493 H   0  0  0  0  0  0
  -26.3894   31.7380  -42.0800 H   0  0  0  0  0  0
  -26.7386   32.5220  -39.8259 H   0  0  0  0  0  0
  -25.3239   31.6846  -39.2742 H   0  0  0  0  0  0
  -28.5896   30.9181  -41.0217 H   0  0  0  0  0  0
  -29.9501   28.9708  -40.5026 H   0  0  0  0  0  0
  -27.0130   27.6617  -37.6529 H   0  0  0  0  0  0
  -25.6360   29.6100  -38.1988 H   0  0  0  0  0  0
  -28.8810   26.8194  -36.6985 H   0  0  0  0  0  0
  -29.5874   24.6119  -37.1776 H   0  0  0  0  0  0
  1  6  1  0  0  0
  1  2  2  0  0  0
  1 27  1  0  0  0
  2  3  1  0  0  0
  2 28  1  0  0  0
  3  4  2  0  0  0
  3 29  1  0  0  0
  4  5  1  0  0  0
  4  7  1  0  0  0
  5  6  2  0  0  0
  5 30  1  0  0  0
  6 31  1  0  0  0
  7 12  1  0  0  0
  7  8  2  0  0  0
  8  9  1  0  0  0
  8 32  1  0  0  0
  9 10  2  0  0  0
  9 33  1  0  0  0
 10 11  1  0  0  0
 10 13  1  0  0  0
 11 12  2  0  0  0
 11 34  1  0  0  0
 12 35  1  0  0  0
 13 14  2  0  0  0
 13 15  1  0  0  0
 15 16  1  0  0  0
 15 36  1  0  0  0
 16 17  1  0  0  0
 16 37  1  0  0  0
 16 38  1  0  0  0
 17 22  1  0  0  0
 17 18  2  0  0  0
 18 19  1  0  0  0
 18 39  1  0  0  0
 19 20  2  0  0  0
 19 40  1  0  0  0
 20 21  1  0  0  0
 20 23  1  0  0  0
 21 22  2  0  0  0
 21 41  1  0  0  0
 22 42  1  0  0  0
 23 24  2  0  0  0
 23 25  1  0  0  0
 25 26  1  0  0  0
 25 43  1  0  0  0
 26 44  1  0  0  0
M  END
> <s_m_entry_id>
53524

> <s_m_entry_name>
ligand_docking-pose.17

> <s_m_Source_Path>
/home/csk/Desktop/cluster/DUD-E-result/hdac8

> <s_m_Source_File>
ligand_docking-pose.sdf

> <i_m_Source_File_Index>
17

> <i_lp_mmshare_version>
53161

> <r_lp_tautomer_probability>
1

> <s_lp_Force_Field>
OPLS_2005

> <r_lp_Energy>
29.486301

> <b_lp_Chiralities_Consistent>
1

> <s_lp_Variant>
37111-1

> <s_i_glide_gridfile>
glide-grid_3f07

> <i_i_glide_lignum>
82

> <i_i_glide_rotatable_bonds>
8

> <r_i_docking_score>
-8.14105105267278

> <r_i_glide_ligand_efficiency>
-0.313117348179722

> <r_i_glide_ligand_efficiency_sa>
-0.927608911925156

> <r_i_glide_ligand_efficiency_ln>
-1.91189912675289

> <r_i_glide_gscore>
-8.14105105267278

> <r_i_glide_lipo>
-1.37739501572632

> <r_i_glide_hbond>
-0.605471032579895

> <r_i_glide_metal>
-2.3

> <r_i_glide_rewards>
-1.31313612695438

> <r_i_glide_evdw>
-26.1593990325928

> <r_i_glide_ecoul>
-14.2229175567627

> <r_i_glide_erotb>
1.10919607852795

> <r_i_glide_esite>
-0.212837370796091

> <r_i_glide_emodel>
-60.8205080318473

> <r_i_glide_energy>
-40.3823165893555

> <r_i_glide_einternal>
3.44241309165955

> <i_i_glide_confnum>
16

> <i_i_glide_posenum>
272

> <r_i_glide_eff_state_penalty>
0

> <i_f3d_flags>
0

> <s_user_duplicate_titles>
37111

> <s_m_subgroup_title>
dock_pv

> <s_m_subgroupid>
dock_pv1

> <b_m_subgroup_collapsed>
0

$$$$
378528
                    3D
 Schrodinger Suite 2021-1.
 47 48  0  0  1  0            999 V2000
  -25.6852   32.3659  -48.2349 C   0  0  0  0  0  0
  -26.8264   31.9297  -47.5633 C   0  0  0  0  0  0
  -26.6958   31.2686  -46.3448 C   0  0  0  0  0  0
  -25.4260   31.0376  -45.8065 C   0  0  0  0  0  0
  -24.2870   31.4807  -46.4841 C   0  0  0  0  0  0
  -24.4170   32.1470  -47.7001 C   0  0  0  0  0  0
  -25.2803   30.2775  -44.4949 C   0  0  0  0  0  0
  -25.2535   31.1750  -43.2408 C   0  0  0  0  0  0
  -26.5734   31.9376  -42.9840 C   0  0  0  0  0  0
  -26.6992   32.5407  -41.5651 C   0  0  0  0  0  0
  -26.6510   31.5193  -40.5082 N   0  0  0  0  0  0
  -25.4978   31.5642  -39.5809 C   0  0  0  0  0  0
  -25.1480   30.1999  -38.9543 C   0  0  0  0  0  0
  -26.3880   29.3611  -38.7498 C   0  0  0  0  0  0
  -27.5813   29.6376  -39.3082 C   0  0  0  0  0  0
  -27.7578   30.7577  -40.2330 C   0  0  0  0  0  0
  -28.8419   30.9754  -40.7810 O   0  0  0  0  0  0
  -28.8164   28.7524  -39.0630 C   0  0  0  0  0  0
  -28.5708   27.2957  -38.5841 C   0  0  0  0  0  0
  -29.8222   26.4063  -38.6211 C   0  0  0  0  0  0
  -30.6104   26.4690  -39.5766 O   0  0  0  0  0  0
  -29.9888   25.5529  -37.6007 N   0  0  0  0  0  0
  -31.0131   24.5998  -37.6840 O   0  0  0  0  0  0
  -25.7842   32.8813  -49.1794 H   0  0  0  0  0  0
  -27.8059   32.1006  -47.9866 H   0  0  0  0  0  0
  -27.5796   30.9274  -45.8260 H   0  0  0  0  0  0
  -23.3025   31.3082  -46.0733 H   0  0  0  0  0  0
  -23.5382   32.4885  -48.2274 H   0  0  0  0  0  0
  -24.3648   29.6853  -44.5364 H   0  0  0  0  0  0
  -26.0818   29.5413  -44.4130 H   0  0  0  0  0  0
  -24.4235   31.8811  -43.3038 H   0  0  0  0  0  0
  -25.0308   30.5351  -42.3868 H   0  0  0  0  0  0
  -27.4133   31.2694  -43.1642 H   0  0  0  0  0  0
  -26.6710   32.7389  -43.7177 H   0  0  0  0  0  0
  -27.6124   33.1327  -41.4804 H   0  0  0  0  0  0
  -25.8809   33.2460  -41.4068 H   0  0  0  0  0  0
  -25.8850   32.1313  -38.7341 H   0  0  0  0  0  0
  -24.6533   32.1575  -39.9362 H   0  0  0  0  0  0
  -24.6242   30.3536  -38.0098 H   0  0  0  0  0  0
  -24.4589   29.6691  -39.6090 H   0  0  0  0  0  0
  -26.2990   28.5038  -38.1021 H   0  0  0  0  0  0
  -29.4107   28.7177  -39.9788 H   0  0  0  0  0  0
  -29.4131   29.2714  -38.3159 H   0  0  0  0  0  0
  -28.1432   27.2731  -37.5812 H   0  0  0  0  0  0
  -27.8327   26.8254  -39.2370 H   0  0  0  0  0  0
  -29.3917   25.4241  -36.7945 H   0  0  0  0  0  0
  -30.5379   23.7626  -37.7931 H   0  0  0  0  0  0
  1  6  1  0  0  0
  1  2  2  0  0  0
  1 24  1  0  0  0
  2  3  1  0  0  0
  2 25  1  0  0  0
  3  4  2  0  0  0
  3 26  1  0  0  0
  4  5  1  0  0  0
  4  7  1  0  0  0
  5  6  2  0  0  0
  5 27  1  0  0  0
  6 28  1  0  0  0
  7  8  1  0  0  0
  7 29  1  0  0  0
  7 30  1  0  0  0
  8  9  1  0  0  0
  8 31  1  0  0  0
  8 32  1  0  0  0
  9 10  1  0  0  0
  9 33  1  0  0  0
  9 34  1  0  0  0
 10 11  1  0  0  0
 10 35  1  0  0  0
 10 36  1  0  0  0
 11 16  1  0  0  0
 11 12  1  0  0  0
 12 13  1  0  0  0
 12 37  1  0  0  0
 12 38  1  0  0  0
 13 14  1  0  0  0
 13 39  1  0  0  0
 13 40  1  0  0  0
 14 15  2  0  0  0
 14 41  1  0  0  0
 15 16  1  0  0  0
 15 18  1  0  0  0
 16 17  2  0  0  0
 18 19  1  0  0  0
 18 42  1  0  0  0
 18 43  1  0  0  0
 19 20  1  0  0  0
 19 44  1  0  0  0
 19 45  1  0  0  0
 20 21  2  0  0  0
 20 22  1  0  0  0
 22 23  1  0  0  0
 22 46  1  0  0  0
 23 47  1  0  0  0
M  END
> <s_m_entry_id>
53527

> <s_m_entry_name>
ligand_docking-pose.20

> <s_m_Source_Path>
/home/csk/Desktop/cluster/DUD-E-result/hdac8

> <s_m_Source_File>
ligand_docking-pose.sdf

> <i_m_Source_File_Index>
20

> <i_lp_mmshare_version>
53161

> <r_lp_tautomer_probability>
1

> <s_lp_Force_Field>
OPLS_2005

> <r_lp_Energy>
25.880393

> <b_lp_Chiralities_Consistent>
1

> <s_lp_Variant>
378528-1

> <s_i_glide_gridfile>
glide-grid_3f07

> <i_i_glide_lignum>
119

> <i_i_glide_rotatable_bonds>
10

> <r_i_docking_score>
-8.10710101163244

> <r_i_glide_ligand_efficiency>
-0.352482652679671

> <r_i_glide_ligand_efficiency_sa>
-1.00241377587852

> <r_i_glide_ligand_efficiency_ln>
-1.96037053574042

> <r_i_glide_gscore>
-8.10710101163244

> <r_i_glide_lipo>
-1.31457033365377

> <r_i_glide_hbond>
-0.304

> <r_i_glide_metal>
-2.3

> <r_i_glide_rewards>
-1.3901717615241

> <r_i_glide_evdw>
-27.9857711791992

> <r_i_glide_ecoul>
-18.0294227600098

> <r_i_glide_erotb>
1.48772113736526

> <r_i_glide_esite>
-0.1823780808584

> <r_i_glide_emodel>
-71.5458670751338

> <r_i_glide_energy>
-46.015193939209

> <r_i_glide_einternal>
6.66239595413208

> <i_i_glide_confnum>
80

> <i_i_glide_posenum>
89

> <r_i_glide_eff_state_penalty>
0

> <i_f3d_flags>
0

> <s_user_duplicate_titles>
378528

> <s_m_subgroup_title>
dock_pv

> <s_m_subgroupid>
dock_pv1

> <b_m_subgroup_collapsed>
0

$$$$
330006
                    3D
 Schrodinger Suite 2021-1.
 41 43  0  0  1  0            999 V2000
  -28.2854   33.2690  -45.9817 C   0  0  0  0  0  0
  -27.9059   34.0690  -44.9060 C   0  0  0  0  0  0
  -26.6388   33.9190  -44.3481 C   0  0  0  0  0  0
  -25.7531   32.9737  -44.8721 C   0  0  0  0  0  0
  -26.1436   32.1685  -45.9467 C   0  0  0  0  0  0
  -27.4130   32.3142  -46.5004 C   0  0  0  0  0  0
  -24.3515   32.8429  -44.2896 C   0  0  0  0  0  0
  -24.0296   31.4511  -43.7069 C   0  0  0  0  0  0
  -24.7990   31.0904  -42.5052 N   0  0  0  0  0  0
  -24.4898   31.5412  -41.2625 C   0  0  0  0  0  0
  -23.5905   32.3247  -40.9616 O   0  0  0  0  0  0
  -25.4576   30.8690  -40.3586 C   0  0  0  0  0  0
  -25.6239   30.9438  -38.9795 C   0  0  0  0  0  0
  -26.6130   30.1569  -38.3810 C   0  0  0  0  0  0
  -27.4232   29.2913  -39.1349 C   0  0  0  0  0  0
  -27.2436   29.2690  -40.5277 C   0  0  0  0  0  0
  -26.2559   30.0615  -41.1180 C   0  0  0  0  0  0
  -25.8369   30.2173  -42.5362 C   0  0  0  0  0  0
  -26.3130   29.6690  -43.5297 O   0  0  0  0  0  0
  -28.4212   28.4296  -38.4446 C   0  0  0  0  0  0
  -28.8027   27.1831  -38.8143 C   0  0  0  0  0  0
  -29.8130   26.3839  -38.1407 C   0  0  0  0  0  0
  -30.5887   25.6690  -38.7810 O   0  0  0  0  0  0
  -29.8291   26.4690  -36.8007 N   0  0  0  0  0  0
  -30.7716   25.7099  -36.0926 O   0  0  0  0  0  0
  -29.2679   33.3861  -46.4169 H   0  0  0  0  0  0
  -28.5895   34.8056  -44.5104 H   0  0  0  0  0  0
  -26.3435   34.5455  -43.5188 H   0  0  0  0  0  0
  -25.4651   31.4343  -46.3554 H   0  0  0  0  0  0
  -27.7199   31.6946  -47.3309 H   0  0  0  0  0  0
  -24.1531   33.6175  -43.5464 H   0  0  0  0  0  0
  -23.6468   33.0537  -45.0951 H   0  0  0  0  0  0
  -22.9764   31.4513  -43.4187 H   0  0  0  0  0  0
  -24.0897   30.6880  -44.4847 H   0  0  0  0  0  0
  -25.0091   31.6011  -38.3799 H   0  0  0  0  0  0
  -26.7485   30.2368  -37.3160 H   0  0  0  0  0  0
  -27.8597   28.6354  -41.1387 H   0  0  0  0  0  0
  -28.8934   28.8690  -37.5810 H   0  0  0  0  0  0
  -28.3474   26.7118  -39.6691 H   0  0  0  0  0  0
  -29.2018   27.0065  -36.2022 H   0  0  0  0  0  0
  -30.2450   25.0223  -35.6740 H   0  0  0  0  0  0
  1  6  1  0  0  0
  1  2  2  0  0  0
  1 26  1  0  0  0
  2  3  1  0  0  0
  2 27  1  0  0  0
  3  4  2  0  0  0
  3 28  1  0  0  0
  4  5  1  0  0  0
  4  7  1  0  0  0
  5  6  2  0  0  0
  5 29  1  0  0  0
  6 30  1  0  0  0
  7  8  1  0  0  0
  7 31  1  0  0  0
  7 32  1  0  0  0
  8  9  1  0  0  0
  8 33  1  0  0  0
  8 34  1  0  0  0
  9 18  1  0  0  0
  9 10  1  0  0  0
 10 11  2  0  0  0
 10 12  1  0  0  0
 12 17  2  0  0  0
 12 13  1  0  0  0
 13 14  2  0  0  0
 13 35  1  0  0  0
 14 15  1  0  0  0
 14 36  1  0  0  0
 15 16  2  0  0  0
 15 20  1  0  0  0
 16 17  1  0  0  0
 16 37  1  0  0  0
 17 18  1  0  0  0
 18 19  2  0  0  0
 20 21  2  0  0  0
 20 38  1  0  0  0
 21 22  1  0  0  0
 21 39  1  0  0  0
 22 23  2  0  0  0
 22 24  1  0  0  0
 24 25  1  0  0  0
 24 40  1  0  0  0
 25 41  1  0  0  0
M  END
> <s_m_entry_id>
53528

> <s_m_entry_name>
ligand_docking-pose.21

> <s_m_Source_Path>
/home/csk/Desktop/cluster/DUD-E-result/hdac8

> <s_m_Source_File>
ligand_docking-pose.sdf

> <i_m_Source_File_Index>
21

> <i_lp_mmshare_version>
53161

> <r_lp_tautomer_probability>
1

> <s_lp_Force_Field>
OPLS_2005

> <r_lp_Energy>
48.596831

> <b_lp_Chiralities_Consistent>
1

> <s_lp_Variant>
330006-1

> <s_i_glide_gridfile>
glide-grid_3f07

> <i_i_glide_lignum>
150

> <i_i_glide_rotatable_bonds>
7

> <r_i_docking_score>
-8.09199402325683

> <r_i_glide_ligand_efficiency>
-0.323679760930273

> <r_i_glide_ligand_efficiency_sa>
-0.946445361445122

> <r_i_glide_ligand_efficiency_ln>
-1.9180450810044

> <r_i_glide_gscore>
-8.09199402325683

> <r_i_glide_lipo>
-1.37295336160346

> <r_i_glide_hbond>
-0.559623219106238

> <r_i_glide_metal>
-2.3

> <r_i_glide_rewards>
-1.29060308400818

> <r_i_glide_evdw>
-32.9576606750488

> <r_i_glide_ecoul>
-11.9011716842651

> <r_i_glide_erotb>
1.00163784145121

> <r_i_glide_esite>
-0.137393413597947

> <r_i_glide_emodel>
-67.8140590158522

> <r_i_glide_energy>
-44.858832359314

> <r_i_glide_einternal>
4.9537410736084

> <i_i_glide_confnum>
54

> <i_i_glide_posenum>
383

> <r_i_glide_eff_state_penalty>
0

> <i_f3d_flags>
0

> <s_user_duplicate_titles>
330006

> <s_m_subgroup_title>
dock_pv

> <s_m_subgroupid>
dock_pv1

> <b_m_subgroup_collapsed>
0

$$$$
86160
                    3D
 Schrodinger Suite 2021-1.
 43 44  0  0  1  0            999 V2000
  -27.1251   31.7756  -47.4379 C   0  0  0  0  0  0
  -26.6689   31.3956  -46.1805 C   0  0  0  0  0  0
  -25.3081   31.1691  -45.9090 C   0  0  0  0  0  0
  -24.4052   31.3583  -46.9815 C   0  0  0  0  0  0
  -22.9770   31.2692  -47.1219 C   0  0  0  0  0  0
  -22.6604   31.5420  -48.4342 C   0  0  0  0  0  0
  -23.8161   31.8222  -49.1166 N   0  0  0  0  0  0
  -24.9034   31.7313  -48.2713 C   0  0  0  0  0  0
  -26.2617   31.9411  -48.5161 C   0  0  0  0  0  0
  -24.8709   30.7341  -44.5297 C   0  0  0  0  0  0
  -23.8441   30.0688  -44.3810 O   0  0  0  0  0  0
  -25.6410   31.1455  -43.5042 N   0  0  0  0  0  0
  -25.3711   30.9190  -42.0847 C   0  0  0  0  0  0
  -26.5429   30.2448  -41.3458 C   0  0  0  0  0  0
  -26.2212   30.0050  -39.8579 C   0  0  0  0  0  0
  -27.4044   29.5614  -38.9768 C   0  0  0  0  0  0
  -28.1189   28.2588  -39.4023 C   0  0  0  0  0  0
  -28.7899   27.5665  -38.1910 C   0  0  0  0  0  0
  -29.8186   26.4691  -38.4977 C   0  0  0  0  0  0
  -30.4118   26.4690  -39.5810 O   0  0  0  0  0  0
  -30.0916   25.5924  -37.5188 N   0  0  0  0  0  0
  -31.0130   24.5646  -37.7798 O   0  0  0  0  0  0
  -23.8223   32.0710  -50.0952 H   0  0  0  0  0  0
  -28.1831   31.9435  -47.5820 H   0  0  0  0  0  0
  -27.4122   31.2687  -45.4077 H   0  0  0  0  0  0
  -22.2616   31.0280  -46.3484 H   0  0  0  0  0  0
  -21.7048   31.5741  -48.9408 H   0  0  0  0  0  0
  -26.6349   32.2280  -49.4885 H   0  0  0  0  0  0
  -26.3943   31.7802  -43.7182 H   0  0  0  0  0  0
  -25.1447   31.8786  -41.6166 H   0  0  0  0  0  0
  -24.4624   30.3366  -41.9245 H   0  0  0  0  0  0
  -26.7790   29.2932  -41.8228 H   0  0  0  0  0  0
  -27.4336   30.8686  -41.4334 H   0  0  0  0  0  0
  -25.8149   30.9231  -39.4285 H   0  0  0  0  0  0
  -25.4199   29.2703  -39.7765 H   0  0  0  0  0  0
  -28.1355   30.3684  -38.9091 H   0  0  0  0  0  0
  -27.0127   29.4420  -37.9653 H   0  0  0  0  0  0
  -27.4030   27.5669  -39.8504 H   0  0  0  0  0  0
  -28.8451   28.4991  -40.1797 H   0  0  0  0  0  0
  -29.3060   28.3106  -37.5820 H   0  0  0  0  0  0
  -27.9922   27.1574  -37.5810 H   0  0  0  0  0  0
  -29.6701   25.5322  -36.6009 H   0  0  0  0  0  0
  -30.4634   23.7673  -37.8209 H   0  0  0  0  0  0
  1  9  1  0  0  0
  1  2  2  0  0  0
  1 24  1  0  0  0
  2  3  1  0  0  0
  2 25  1  0  0  0
  3  4  2  0  0  0
  3 10  1  0  0  0
  4  8  1  0  0  0
  4  5  1  0  0  0
  5  6  2  0  0  0
  5 26  1  0  0  0
  6  7  1  0  0  0
  6 27  1  0  0  0
  7 23  1  0  0  0
  7  8  1  0  0  0
  8  9  2  0  0  0
  9 28  1  0  0  0
 10 11  2  0  0  0
 10 12  1  0  0  0
 12 13  1  0  0  0
 12 29  1  0  0  0
 13 14  1  0  0  0
 13 30  1  0  0  0
 13 31  1  0  0  0
 14 15  1  0  0  0
 14 32  1  0  0  0
 14 33  1  0  0  0
 15 16  1  0  0  0
 15 34  1  0  0  0
 15 35  1  0  0  0
 16 17  1  0  0  0
 16 36  1  0  0  0
 16 37  1  0  0  0
 17 18  1  0  0  0
 17 38  1  0  0  0
 17 39  1  0  0  0
 18 19  1  0  0  0
 18 40  1  0  0  0
 18 41  1  0  0  0
 19 20  2  0  0  0
 19 21  1  0  0  0
 21 22  1  0  0  0
 21 42  1  0  0  0
 22 43  1  0  0  0
M  END
> <s_m_entry_id>
53530

> <s_m_entry_name>
ligand_docking-pose.23

> <s_m_Source_Path>
/home/csk/Desktop/cluster/DUD-E-result/hdac8

> <s_m_Source_File>
ligand_docking-pose.sdf

> <i_m_Source_File_Index>
23

> <i_lp_mmshare_version>
53161

> <r_lp_tautomer_probability>
1

> <s_lp_Force_Field>
OPLS_2005

> <r_lp_Energy>
14.30547

> <b_lp_Chiralities_Consistent>
1

> <s_lp_Variant>
86160-1

> <s_i_glide_gridfile>
glide-grid_3f07

> <i_i_glide_lignum>
76

> <i_i_glide_rotatable_bonds>
11

> <r_i_docking_score>
-8.0793634508846

> <r_i_glide_ligand_efficiency>
-0.367243793222027

> <r_i_glide_ligand_efficiency_sa>
-1.02903155148693

> <r_i_glide_ligand_efficiency_ln>
-1.97489112933851

> <r_i_glide_gscore>
-8.0793634508846

> <r_i_glide_lipo>
-1.22254920700084

> <r_i_glide_hbond>
-0.564893234433727

> <r_i_glide_metal>
-2.3

> <r_i_glide_rewards>
-1.44036252686581

> <r_i_glide_evdw>
-26.4501762390137

> <r_i_glide_ecoul>
-19.3155612945557

> <r_i_glide_erotb>
1.80205018371269

> <r_i_glide_esite>
-0.133765660162885

> <r_i_glide_emodel>
-70.0318987772435

> <r_i_glide_energy>
-45.7657375335693

> <r_i_glide_einternal>
7.29070329666138

> <i_i_glide_confnum>
17

> <i_i_glide_posenum>
332

> <r_i_glide_eff_state_penalty>
0

> <i_f3d_flags>
0

> <s_user_duplicate_titles>
86160

> <s_m_subgroup_title>
dock_pv

> <s_m_subgroupid>
dock_pv1

> <b_m_subgroup_collapsed>
0

$$$$
626505
                    3D
 Schrodinger Suite 2021-1.
 54 56  0  0  1  0            999 V2000
  -19.1504   28.9588  -42.7983 C   0  0  0  0  0  0
  -18.9941   30.3956  -42.2708 C   0  0  0  0  0  0
  -20.2124   30.8945  -41.6116 N   0  0  0  0  0  0
  -19.8496   32.0077  -40.7139 C   0  0  0  0  0  0
  -20.8419   32.2308  -39.5580 C   0  0  0  0  0  0
  -21.2160   31.2687  -42.6311 C   0  0  0  0  0  0
  -22.6245   31.5718  -42.0668 C   0  0  0  0  0  0
  -23.7402   31.2689  -42.9818 N   0  0  0  0  0  0
  -23.7731   31.4599  -44.3612 C   0  0  0  0  0  0
  -22.8410   31.8894  -45.3187 C   0  0  0  0  0  0
  -23.2682   31.9378  -46.6478 C   0  0  0  0  0  0
  -24.5635   31.5854  -47.0205 C   0  0  0  0  0  0
  -25.4947   31.1612  -46.0742 C   0  0  0  0  0  0
  -25.0922   31.0994  -44.7341 C   0  0  0  0  0  0
  -25.8278   30.7318  -43.6496 N   0  0  0  0  0  0
  -25.0395   30.9017  -42.6135 C   0  0  0  0  0  0
  -25.5613   30.6739  -41.2133 C   0  0  0  0  0  0
  -25.0897   31.3732  -40.0949 C   0  0  0  0  0  0
  -25.5882   31.1068  -38.8229 C   0  0  0  0  0  0
  -26.5889   30.1587  -38.6433 C   0  0  0  0  0  0
  -27.1248   29.4867  -39.7423 C   0  0  0  0  0  0
  -26.6100   29.7609  -41.0154 C   0  0  0  0  0  0
  -28.2137   28.5083  -39.5854 C   0  0  0  0  0  0
  -28.4252   27.7187  -38.5102 C   0  0  0  0  0  0
  -29.5383   26.8041  -38.4293 C   0  0  0  0  0  0
  -30.2131   26.4690  -39.4127 O   0  0  0  0  0  0
  -29.8130   26.3975  -37.1808 N   0  0  0  0  0  0
  -30.8486   25.4664  -36.9887 O   0  0  0  0  0  0
  -18.2093   28.6084  -43.2229 H   0  0  0  0  0  0
  -19.4129   28.2769  -41.9890 H   0  0  0  0  0  0
  -19.9023   28.8689  -43.5807 H   0  0  0  0  0  0
  -18.6880   31.0681  -43.0753 H   0  0  0  0  0  0
  -18.1639   30.3727  -41.5624 H   0  0  0  0  0  0
  -18.8954   31.7878  -40.2312 H   0  0  0  0  0  0
  -19.6909   32.9331  -41.2718 H   0  0  0  0  0  0
  -20.3773   32.8252  -38.7710 H   0  0  0  0  0  0
  -21.7334   32.7787  -39.8567 H   0  0  0  0  0  0
  -21.1534   31.2868  -39.1057 H   0  0  0  0  0  0
  -21.3054   30.4695  -43.3658 H   0  0  0  0  0  0
  -20.8438   32.1415  -43.1688 H   0  0  0  0  0  0
  -22.7020   32.6285  -41.8157 H   0  0  0  0  0  0
  -22.7609   30.9678  -41.1710 H   0  0  0  0  0  0
  -21.8307   32.1723  -45.0727 H   0  0  0  0  0  0
  -22.5746   32.2599  -47.4112 H   0  0  0  0  0  0
  -24.8503   31.6482  -48.0609 H   0  0  0  0  0  0
  -26.5002   30.8954  -46.3640 H   0  0  0  0  0  0
  -24.3461   32.1497  -40.1868 H   0  0  0  0  0  0
  -25.2068   31.6630  -37.9811 H   0  0  0  0  0  0
  -26.9710   29.9798  -37.6493 H   0  0  0  0  0  0
  -27.0290   29.2647  -41.8745 H   0  0  0  0  0  0
  -28.9035   28.4689  -40.4127 H   0  0  0  0  0  0
  -27.7579   27.7538  -37.6620 H   0  0  0  0  0  0
  -29.3165   26.6452  -36.3316 H   0  0  0  0  0  0
  -30.3854   24.6460  -36.7889 H   0  0  0  0  0  0
  1  2  1  0  0  0
  1 29  1  0  0  0
  1 30  1  0  0  0
  1 31  1  0  0  0
  2  3  1  0  0  0
  2 32  1  0  0  0
  2 33  1  0  0  0
  3  4  1  0  0  0
  3  6  1  0  0  0
  4  5  1  0  0  0
  4 34  1  0  0  0
  4 35  1  0  0  0
  5 36  1  0  0  0
  5 37  1  0  0  0
  5 38  1  0  0  0
  6  7  1  0  0  0
  6 39  1  0  0  0
  6 40  1  0  0  0
  7  8  1  0  0  0
  7 41  1  0  0  0
  7 42  1  0  0  0
  8 16  1  0  0  0
  8  9  1  0  0  0
  9 14  2  0  0  0
  9 10  1  0  0  0
 10 11  2  0  0  0
 10 43  1  0  0  0
 11 12  1  0  0  0
 11 44  1  0  0  0
 12 13  2  0  0  0
 12 45  1  0  0  0
 13 14  1  0  0  0
 13 46  1  0  0  0
 14 15  1  0  0  0
 15 16  2  0  0  0
 16 17  1  0  0  0
 17 22  1  0  0  0
 17 18  2  0  0  0
 18 19  1  0  0  0
 18 47  1  0  0  0
 19 20  2  0  0  0
 19 48  1  0  0  0
 20 21  1  0  0  0
 20 49  1  0  0  0
 21 22  2  0  0  0
 21 23  1  0  0  0
 22 50  1  0  0  0
 23 24  2  0  0  0
 23 51  1  0  0  0
 24 25  1  0  0  0
 24 52  1  0  0  0
 25 26  2  0  0  0
 25 27  1  0  0  0
 27 28  1  0  0  0
 27 53  1  0  0  0
 28 54  1  0  0  0
M  END
> <s_m_entry_id>
53535

> <s_m_entry_name>
ligand_docking-pose.28

> <s_m_Source_Path>
/home/csk/Desktop/cluster/DUD-E-result/hdac8

> <s_m_Source_File>
ligand_docking-pose.sdf

> <i_m_Source_File_Index>
28

> <i_lp_mmshare_version>
53161

> <r_lp_tautomer_probability>
1

> <s_lp_Force_Field>
OPLS_2005

> <r_lp_Energy>
31.074819

> <b_lp_Chiralities_Consistent>
1

> <s_lp_Variant>
626505-1

> <s_i_glide_gridfile>
glide-grid_3f07

> <i_i_glide_lignum>
332

> <i_i_glide_rotatable_bonds>
10

> <r_i_docking_score>
-7.98709244945356

> <r_i_glide_ligand_efficiency>
-0.285253301766199

> <r_i_glide_ligand_efficiency_sa>
-0.866197029372244

> <r_i_glide_ligand_efficiency_ln>
-1.84365544855835

> <r_i_glide_gscore>
-7.98709244945356

> <r_i_glide_lipo>
-1.17317001299277

> <r_i_glide_hbond>
-0.582975046181763

> <r_i_glide_metal>
-2.3

> <r_i_glide_rewards>
-1.01165109758226

> <r_i_glide_evdw>
-32.8890838623047

> <r_i_glide_ecoul>
-13.7552452087402

> <r_i_glide_erotb>
0.94707247041769

> <r_i_glide_esite>
-0.158627788688191

> <r_i_glide_emodel>
-70.0539597828903

> <r_i_glide_energy>
-46.6443290710449

> <r_i_glide_einternal>
9.82252883911133

> <i_i_glide_confnum>
28

> <i_i_glide_posenum>
298

> <r_i_glide_eff_state_penalty>
0

> <i_f3d_flags>
0

> <s_user_duplicate_titles>
626505

> <s_m_subgroup_title>
dock_pv

> <s_m_subgroupid>
dock_pv1

> <b_m_subgroup_collapsed>
0

$$$$
318026
                    3D
 Schrodinger Suite 2021-1.
 40 41  0  0  1  0            999 V2000
  -23.6642   32.8325  -40.5392 C   0  0  0  0  0  0
  -24.8872   32.9045  -41.5078 C   0  0  0  0  0  0
  -25.1382   34.4111  -41.8010 C   0  0  0  0  0  0
  -24.6379   32.1650  -42.8568 C   0  0  0  0  0  0
  -23.3871   31.6083  -43.1782 C   0  0  0  0  0  0
  -23.1823   30.9636  -44.3954 C   0  0  0  0  0  0
  -24.2245   30.8692  -45.3112 C   0  0  0  0  0  0
  -25.4699   31.4164  -45.0217 C   0  0  0  0  0  0
  -25.6706   32.0660  -43.8073 C   0  0  0  0  0  0
  -26.1463   32.2645  -40.8308 C   0  0  0  0  0  0
  -27.2539   32.8084  -40.9156 O   0  0  0  0  0  0
  -25.9531   31.0882  -40.1955 N   0  0  0  0  0  0
  -26.9172   30.1667  -39.7635 C   0  0  0  0  0  0
  -28.1745   30.0433  -40.3602 C   0  0  0  0  0  0
  -29.0130   29.0049  -39.9810 C   0  0  0  0  0  0
  -28.6224   28.0688  -39.0164 C   0  0  0  0  0  0
  -27.3916   28.2361  -38.3831 C   0  0  0  0  0  0
  -26.5381   29.2690  -38.7697 C   0  0  0  0  0  0
  -29.5203   26.8933  -38.7102 C   0  0  0  0  0  0
  -30.2857   26.4691  -39.5809 O   0  0  0  0  0  0
  -29.5631   26.4690  -37.4431 N   0  0  0  0  0  0
  -30.3579   25.3471  -37.1431 O   0  0  0  0  0  0
  -23.3531   31.8098  -40.3221 H   0  0  0  0  0  0
  -22.7962   33.3500  -40.9501 H   0  0  0  0  0  0
  -23.8707   33.3068  -39.5811 H   0  0  0  0  0  0
  -25.9835   34.5725  -42.4718 H   0  0  0  0  0  0
  -25.3425   34.9700  -40.8856 H   0  0  0  0  0  0
  -24.2690   34.8730  -42.2713 H   0  0  0  0  0  0
  -22.5497   31.6675  -42.5009 H   0  0  0  0  0  0
  -22.2128   30.5496  -44.6330 H   0  0  0  0  0  0
  -24.0623   30.3776  -46.2586 H   0  0  0  0  0  0
  -26.2754   31.3462  -45.7383 H   0  0  0  0  0  0
  -26.6420   32.4939  -43.6054 H   0  0  0  0  0  0
  -24.9968   30.8437  -39.9898 H   0  0  0  0  0  0
  -28.4912   30.7025  -41.1543 H   0  0  0  0  0  0
  -29.9634   28.9176  -40.4857 H   0  0  0  0  0  0
  -27.0522   27.5337  -37.6353 H   0  0  0  0  0  0
  -25.5600   29.3422  -38.3165 H   0  0  0  0  0  0
  -29.0128   26.8045  -36.6573 H   0  0  0  0  0  0
  -29.7232   24.6257  -37.0610 H   0  0  0  0  0  0
  1  2  1  0  0  0
  1 23  1  0  0  0
  1 24  1  0  0  0
  1 25  1  0  0  0
  2  3  1  0  0  0
  2  4  1  0  0  0
  2 10  1  0  0  0
  3 26  1  0  0  0
  3 27  1  0  0  0
  3 28  1  0  0  0
  4  9  1  0  0  0
  4  5  2  0  0  0
  5  6  1  0  0  0
  5 29  1  0  0  0
  6  7  2  0  0  0
  6 30  1  0  0  0
  7  8  1  0  0  0
  7 31  1  0  0  0
  8  9  2  0  0  0
  8 32  1  0  0  0
  9 33  1  0  0  0
 10 11  2  0  0  0
 10 12  1  0  0  0
 12 13  1  0  0  0
 12 34  1  0  0  0
 13 18  1  0  0  0
 13 14  2  0  0  0
 14 15  1  0  0  0
 14 35  1  0  0  0
 15 16  2  0  0  0
 15 36  1  0  0  0
 16 17  1  0  0  0
 16 19  1  0  0  0
 17 18  2  0  0  0
 17 37  1  0  0  0
 18 38  1  0  0  0
 19 20  2  0  0  0
 19 21  1  0  0  0
 21 22  1  0  0  0
 21 39  1  0  0  0
 22 40  1  0  0  0
M  END
> <s_m_entry_id>
53536

> <s_m_entry_name>
ligand_docking-pose.29

> <s_m_Source_Path>
/home/csk/Desktop/cluster/DUD-E-result/hdac8

> <s_m_Source_File>
ligand_docking-pose.sdf

> <i_m_Source_File_Index>
29

> <i_lp_mmshare_version>
53161

> <r_lp_tautomer_probability>
1

> <s_lp_Force_Field>
OPLS_2005

> <r_lp_Energy>
34.84973

> <b_lp_Chiralities_Consistent>
1

> <s_lp_Variant>
318026-1

> <s_i_glide_gridfile>
glide-grid_3f07

> <i_i_glide_lignum>
257

> <i_i_glide_rotatable_bonds>
7

> <r_i_docking_score>
-7.98701788645926

> <r_i_glide_ligand_efficiency>
-0.36304626756633

> <r_i_glide_ligand_efficiency_sa>
-1.01726991952035

> <r_i_glide_ligand_efficiency_ln>
-1.95231850500665

> <r_i_glide_gscore>
-7.98701788645926

> <r_i_glide_lipo>
-1.1248950202178

> <r_i_glide_hbond>
-0.608

> <r_i_glide_metal>
-2.3

> <r_i_glide_rewards>
-1.54596372330106

> <r_i_glide_evdw>
-20.8630561828613

> <r_i_glide_ecoul>
-14.4293270111084

> <r_i_glide_erotb>
1.03081279089254

> <r_i_glide_esite>
-0.231420073023614

> <r_i_glide_emodel>
-54.4811188516921

> <r_i_glide_energy>
-35.2923831939697

> <r_i_glide_einternal>
5.82596206665039

> <i_i_glide_confnum>
3

> <i_i_glide_posenum>
137

> <r_i_glide_eff_state_penalty>
0

> <i_f3d_flags>
0

> <s_user_duplicate_titles>
318026

> <s_m_subgroup_title>
dock_pv

> <s_m_subgroupid>
dock_pv1

> <b_m_subgroup_collapsed>
0

$$$$
378527
                    3D
 Schrodinger Suite 2021-1.
 44 45  0  0  1  0            999 V2000
  -24.0305   31.2690  -46.7140 C   0  0  0  0  0  0
  -25.3974   31.5307  -46.7907 C   0  0  0  0  0  0
  -26.1527   31.6002  -45.6228 C   0  0  0  0  0  0
  -25.5368   31.4076  -44.3833 C   0  0  0  0  0  0
  -24.1680   31.1334  -44.3137 C   0  0  0  0  0  0
  -23.4130   31.0683  -45.4811 C   0  0  0  0  0  0
  -26.3519   31.5013  -43.1034 C   0  0  0  0  0  0
  -26.0903   32.8039  -42.3141 C   0  0  0  0  0  0
  -26.9095   32.9462  -41.0121 C   0  0  0  0  0  0
  -26.7907   31.7668  -40.1413 N   0  0  0  0  0  0
  -25.5424   31.6546  -39.3523 C   0  0  0  0  0  0
  -25.1409   30.2053  -39.0177 C   0  0  0  0  0  0
  -26.3652   29.3568  -38.7810 C   0  0  0  0  0  0
  -27.5981   29.6891  -39.2064 C   0  0  0  0  0  0
  -27.8447   30.9040  -39.9816 C   0  0  0  0  0  0
  -28.9469   31.1305  -40.4917 O   0  0  0  0  0  0
  -28.8168   28.7827  -38.9733 C   0  0  0  0  0  0
  -28.5485   27.3141  -38.5556 C   0  0  0  0  0  0
  -29.8130   26.4455  -38.5540 C   0  0  0  0  0  0
  -30.5698   26.4690  -39.5342 O   0  0  0  0  0  0
  -30.0297   25.6690  -37.4808 N   0  0  0  0  0  0
  -31.1184   24.7851  -37.5026 O   0  0  0  0  0  0
  -23.4424   31.2223  -47.6188 H   0  0  0  0  0  0
  -25.8690   31.6847  -47.7502 H   0  0  0  0  0  0
  -27.2112   31.8095  -45.6832 H   0  0  0  0  0  0
  -23.6885   30.9863  -43.3566 H   0  0  0  0  0  0
  -22.3516   30.8690  -45.4319 H   0  0  0  0  0  0
  -26.1116   30.6298  -42.4924 H   0  0  0  0  0  0
  -27.4130   31.4095  -43.3329 H   0  0  0  0  0  0
  -26.2969   33.6650  -42.9510 H   0  0  0  0  0  0
  -25.0294   32.8743  -42.0698 H   0  0  0  0  0  0
  -27.9509   33.1357  -41.2738 H   0  0  0  0  0  0
  -26.5693   33.8237  -40.4590 H   0  0  0  0  0  0
  -25.8130   32.0690  -38.3810 H   0  0  0  0  0  0
  -24.7336   32.2936  -39.7100 H   0  0  0  0  0  0
  -24.4876   30.1956  -38.1445 H   0  0  0  0  0  0
  -24.5715   29.7737  -39.8403 H   0  0  0  0  0  0
  -26.2254   28.4413  -38.2344 H   0  0  0  0  0  0
  -29.4130   28.7737  -39.8887 H   0  0  0  0  0  0
  -29.4130   29.2690  -38.2023 H   0  0  0  0  0  0
  -28.0669   27.2743  -37.5810 H   0  0  0  0  0  0
  -27.8474   26.8586  -39.2566 H   0  0  0  0  0  0
  -29.4524   25.5737  -36.6555 H   0  0  0  0  0  0
  -30.7086   23.9137  -37.5810 H   0  0  0  0  0  0
  1  6  1  0  0  0
  1  2  2  0  0  0
  1 23  1  0  0  0
  2  3  1  0  0  0
  2 24  1  0  0  0
  3  4  2  0  0  0
  3 25  1  0  0  0
  4  5  1  0  0  0
  4  7  1  0  0  0
  5  6  2  0  0  0
  5 26  1  0  0  0
  6 27  1  0  0  0
  7  8  1  0  0  0
  7 28  1  0  0  0
  7 29  1  0  0  0
  8  9  1  0  0  0
  8 30  1  0  0  0
  8 31  1  0  0  0
  9 10  1  0  0  0
  9 32  1  0  0  0
  9 33  1  0  0  0
 10 15  1  0  0  0
 10 11  1  0  0  0
 11 12  1  0  0  0
 11 34  1  0  0  0
 11 35  1  0  0  0
 12 13  1  0  0  0
 12 36  1  0  0  0
 12 37  1  0  0  0
 13 14  2  0  0  0
 13 38  1  0  0  0
 14 15  1  0  0  0
 14 17  1  0  0  0
 15 16  2  0  0  0
 17 18  1  0  0  0
 17 39  1  0  0  0
 17 40  1  0  0  0
 18 19  1  0  0  0
 18 41  1  0  0  0
 18 42  1  0  0  0
 19 20  2  0  0  0
 19 21  1  0  0  0
 21 22  1  0  0  0
 21 43  1  0  0  0
 22 44  1  0  0  0
M  END
> <s_m_entry_id>
53537

> <s_m_entry_name>
ligand_docking-pose.30

> <s_m_Source_Path>
/home/csk/Desktop/cluster/DUD-E-result/hdac8

> <s_m_Source_File>
ligand_docking-pose.sdf

> <i_m_Source_File_Index>
30

> <i_lp_mmshare_version>
53161

> <r_lp_tautomer_probability>
1

> <s_lp_Force_Field>
OPLS_2005

> <r_lp_Energy>
25.171728

> <b_lp_Chiralities_Consistent>
1

> <s_lp_Variant>
378527-1

> <s_i_glide_gridfile>
glide-grid_3f07

> <i_i_glide_lignum>
127

> <i_i_glide_rotatable_bonds>
9

> <r_i_docking_score>
-7.95606563355601

> <r_i_glide_ligand_efficiency>
-0.361639346979819

> <r_i_glide_ligand_efficiency_sa>
-1.0133276727059

> <r_i_glide_ligand_efficiency_ln>
-1.94475264538624

> <r_i_glide_gscore>
-7.95606563355601

> <r_i_glide_lipo>
-1.10583290004181

> <r_i_glide_hbond>
-0.311258419463377

> <r_i_glide_metal>
-2.3

> <r_i_glide_rewards>
-1.48772558950778

> <r_i_glide_evdw>
-28.0966281890869

> <r_i_glide_ecoul>
-17.2805519104004

> <r_i_glide_erotb>
1.40962765010385

> <r_i_glide_esite>
-0.163962178632502

> <r_i_glide_emodel>
-69.1824794698548

> <r_i_glide_energy>
-45.3771800994873

> <r_i_glide_einternal>
7.80377292633057

> <i_i_glide_confnum>
60

> <i_i_glide_posenum>
19

> <r_i_glide_eff_state_penalty>
0

> <i_f3d_flags>
0

> <s_user_duplicate_titles>
378527

> <s_m_subgroup_title>
dock_pv

> <s_m_subgroupid>
dock_pv1

> <b_m_subgroup_collapsed>
0

$$$$
234706
                    3D
 Schrodinger Suite 2021-1.
 52 54  0  0  1  0            999 V2000
  -22.5590   31.4429  -47.4701 C   0  0  0  0  0  0
  -22.7516   31.0182  -48.7810 C   0  0  0  0  0  0
  -24.0243   30.9291  -49.3445 C   0  0  0  0  0  0
  -25.1068   31.2690  -48.5242 C   0  0  0  0  0  0
  -24.9423   31.7069  -47.1703 C   0  0  0  0  0  0
  -23.6362   31.7973  -46.6598 C   0  0  0  0  0  0
  -26.2564   31.9775  -46.6346 C   0  0  0  0  0  0
  -27.1341   31.6690  -47.6556 C   0  0  0  0  0  0
  -26.4594   31.2592  -48.7738 N   0  0  0  0  0  0
  -26.6347   32.5117  -45.2660 C   0  0  0  0  0  0
  -26.6023   31.4641  -44.1308 C   0  0  0  0  0  0
  -25.2310   31.2002  -43.4666 C   0  0  0  0  0  0
  -24.4954   32.4444  -42.9168 C   0  0  0  0  0  0
  -25.2943   33.2438  -41.9886 N   0  0  1  0  0  0
  -25.0913   32.8936  -40.5834 C   0  0  0  0  0  0
  -25.8377   31.6541  -40.1034 C   0  0  0  0  0  0
  -27.1634   31.4125  -40.4717 C   0  0  0  0  0  0
  -27.8376   30.3021  -39.9690 C   0  0  0  0  0  0
  -27.1970   29.4213  -39.0841 C   0  0  0  0  0  0
  -25.8686   29.6690  -38.7390 C   0  0  0  0  0  0
  -25.1932   30.7781  -39.2334 C   0  0  0  0  0  0
  -27.8892   28.2542  -38.4847 C   0  0  0  0  0  0
  -29.0210   27.7202  -38.9853 C   0  0  0  0  0  0
  -29.8130   26.6480  -38.4301 C   0  0  0  0  0  0
  -30.5950   26.0690  -39.1810 O   0  0  0  0  0  0
  -29.8130   26.4691  -37.0986 N   0  0  0  0  0  0
  -30.6688   25.5033  -36.5445 O   0  0  0  0  0  0
  -26.9333   31.0084  -49.6298 H   0  0  0  0  0  0
  -21.5540   31.5024  -47.0753 H   0  0  0  0  0  0
  -21.8881   30.7591  -49.3777 H   0  0  0  0  0  0
  -24.1571   30.6106  -50.3671 H   0  0  0  0  0  0
  -23.4600   32.1374  -45.6521 H   0  0  0  0  0  0
  -28.2130   31.7265  -47.6825 H   0  0  0  0  0  0
  -27.6533   32.8998  -45.3193 H   0  0  0  0  0  0
  -26.0379   33.3868  -45.0121 H   0  0  0  0  0  0
  -27.0130   30.5209  -44.4926 H   0  0  0  0  0  0
  -27.2910   31.7939  -43.3547 H   0  0  0  0  0  0
  -24.5818   30.6946  -44.1805 H   0  0  0  0  0  0
  -25.3642   30.4817  -42.6572 H   0  0  0  0  0  0
  -24.2531   33.0992  -43.7529 H   0  0  0  0  0  0
  -23.5364   32.1674  -42.4749 H   0  0  0  0  0  0
  -25.1256   34.2311  -42.1259 H   0  0  0  0  0  0
  -25.4812   33.7170  -39.9832 H   0  0  0  0  0  0
  -24.0314   32.8547  -40.3237 H   0  0  0  0  0  0
  -27.6728   32.0988  -41.1306 H   0  0  0  0  0  0
  -28.8678   30.1584  -40.2558 H   0  0  0  0  0  0
  -25.3505   29.0103  -38.0590 H   0  0  0  0  0  0
  -24.1727   30.9620  -38.9278 H   0  0  0  0  0  0
  -27.4545   27.8503  -37.5810 H   0  0  0  0  0  0
  -29.4164   28.1035  -39.9129 H   0  0  0  0  0  0
  -29.2371   26.9459  -36.4084 H   0  0  0  0  0  0
  -31.3192   26.0213  -36.0614 H   0  0  0  0  0  0
  1  6  1  0  0  0
  1  2  2  0  0  0
  1 29  1  0  0  0
  2  3  1  0  0  0
  2 30  1  0  0  0
  3  4  2  0  0  0
  3 31  1  0  0  0
  4  9  1  0  0  0
  4  5  1  0  0  0
  5  6  2  0  0  0
  5  7  1  0  0  0
  6 32  1  0  0  0
  7  8  2  0  0  0
  7 10  1  0  0  0
  8  9  1  0  0  0
  8 33  1  0  0  0
  9 28  1  0  0  0
 10 11  1  0  0  0
 10 34  1  0  0  0
 10 35  1  0  0  0
 11 12  1  0  0  0
 11 36  1  0  0  0
 11 37  1  0  0  0
 12 13  1  0  0  0
 12 38  1  0  0  0
 12 39  1  0  0  0
 13 14  1  0  0  0
 13 40  1  0  0  0
 13 41  1  0  0  0
 14 15  1  0  0  0
 14 42  1  0  0  0
 15 16  1  0  0  0
 15 43  1  0  0  0
 15 44  1  0  0  0
 16 21  1  0  0  0
 16 17  2  0  0  0
 17 18  1  0  0  0
 17 45  1  0  0  0
 18 19  2  0  0  0
 18 46  1  0  0  0
 19 20  1  0  0  0
 19 22  1  0  0  0
 20 21  2  0  0  0
 20 47  1  0  0  0
 21 48  1  0  0  0
 22 23  2  0  0  0
 22 49  1  0  0  0
 23 24  1  0  0  0
 23 50  1  0  0  0
 24 25  2  0  0  0
 24 26  1  0  0  0
 26 27  1  0  0  0
 26 51  1  0  0  0
 27 52  1  0  0  0
M  END
> <s_m_entry_id>
53543

> <s_m_entry_name>
ligand_docking-pose.36

> <s_m_Source_Path>
/home/csk/Desktop/cluster/DUD-E-result/hdac8

> <s_m_Source_File>
ligand_docking-pose.sdf

> <i_m_Source_File_Index>
36

> <i_lp_mmshare_version>
53161

> <r_lp_tautomer_probability>
1

> <s_lp_Force_Field>
OPLS_2005

> <r_lp_Energy>
27.760185

> <b_lp_Chiralities_Consistent>
1

> <s_lp_Variant>
234706-1

> <s_i_glide_gridfile>
glide-grid_3f07

> <i_i_glide_lignum>
24

> <i_i_glide_rotatable_bonds>
11

> <r_i_docking_score>
-7.8740022920223

> <r_i_glide_ligand_efficiency>
-0.291629714519344

> <r_i_glide_ligand_efficiency_sa>
-0.874889142596869

> <r_i_glide_ligand_efficiency_ln>
-1.83293792050956

> <r_i_glide_gscore>
-7.8740022920223

> <r_i_glide_lipo>
-1.36477856946641

> <r_i_glide_hbond>
-0.527993824568302

> <r_i_glide_metal>
-2.3

> <r_i_glide_rewards>
-1.09513835019712

> <r_i_glide_evdw>
-30.4043464660645

> <r_i_glide_ecoul>
-14.7894830703735

> <r_i_glide_erotb>
1.30904647182272

> <r_i_glide_esite>
-0.156498235753928

> <r_i_glide_emodel>
-65.7706226175065

> <r_i_glide_energy>
-45.193829536438

> <r_i_glide_einternal>
6.55479383468628

> <i_i_glide_confnum>
14

> <i_i_glide_posenum>
296

> <r_i_glide_eff_state_penalty>
0

> <i_f3d_flags>
0

> <s_user_duplicate_titles>
234706

> <s_m_subgroup_title>
dock_pv

> <s_m_subgroupid>
dock_pv1

> <b_m_subgroup_collapsed>
0

$$$$
329971
                    3D
 Schrodinger Suite 2021-1.
 40 42  0  0  1  0            999 V2000
  -18.8253   30.0728  -41.3204 C   0  0  0  0  0  0
  -19.1141   30.4727  -40.0169 C   0  0  0  0  0  0
  -20.2305   31.2686  -39.7711 C   0  0  0  0  0  0
  -21.0568   31.6537  -40.8292 C   0  0  0  0  0  0
  -20.7501   31.2698  -42.1370 C   0  0  0  0  0  0
  -19.6362   30.4707  -42.3815 C   0  0  0  0  0  0
  -22.2681   32.5348  -40.5580 C   0  0  0  0  0  0
  -23.5463   31.8090  -40.4816 N   0  0  0  0  0  0
  -24.4757   31.8361  -41.4731 C   0  0  0  0  0  0
  -24.3890   32.3989  -42.5651 O   0  0  0  0  0  0
  -25.6200   31.0439  -40.9532 C   0  0  0  0  0  0
  -26.8629   30.7437  -41.5128 C   0  0  0  0  0  0
  -27.7715   29.9885  -40.7605 C   0  0  0  0  0  0
  -27.4278   29.5322  -39.4767 C   0  0  0  0  0  0
  -26.1644   29.8259  -38.9541 C   0  0  0  0  0  0
  -25.2816   30.5935  -39.7078 C   0  0  0  0  0  0
  -23.9151   31.0779  -39.3977 C   0  0  0  0  0  0
  -23.2627   30.8688  -38.3749 O   0  0  0  0  0  0
  -28.4254   28.7468  -38.6406 C   0  0  0  0  0  0
  -28.3744   27.2359  -38.8830 C   0  0  0  0  0  0
  -29.6324   26.5141  -38.3727 C   0  0  0  0  0  0
  -30.4469   26.0690  -39.1810 O   0  0  0  0  0  0
  -29.8130   26.4685  -37.0444 N   0  0  0  0  0  0
  -30.9513   25.8172  -36.5432 O   0  0  0  0  0  0
  -17.9610   29.4533  -41.5104 H   0  0  0  0  0  0
  -18.4780   30.1651  -39.1998 H   0  0  0  0  0  0
  -20.4618   31.5749  -38.7601 H   0  0  0  0  0  0
  -21.3784   31.5805  -42.9597 H   0  0  0  0  0  0
  -19.4021   30.1635  -43.3906 H   0  0  0  0  0  0
  -22.3119   33.3054  -41.3298 H   0  0  0  0  0  0
  -22.1173   33.0798  -39.6228 H   0  0  0  0  0  0
  -27.1344   31.0955  -42.4981 H   0  0  0  0  0  0
  -28.7430   29.7627  -41.1757 H   0  0  0  0  0  0
  -25.8795   29.4656  -37.9810 H   0  0  0  0  0  0
  -29.4130   29.1709  -38.8061 H   0  0  0  0  0  0
  -28.2041   28.8690  -37.5810 H   0  0  0  0  0  0
  -27.4822   26.8689  -38.3810 H   0  0  0  0  0  0
  -28.2259   27.0203  -39.9403 H   0  0  0  0  0  0
  -29.2052   26.8463  -36.3213 H   0  0  0  0  0  0
  -30.6019   25.0065  -36.1610 H   0  0  0  0  0  0
  1  6  1  0  0  0
  1  2  2  0  0  0
  1 25  1  0  0  0
  2  3  1  0  0  0
  2 26  1  0  0  0
  3  4  2  0  0  0
  3 27  1  0  0  0
  4  5  1  0  0  0
  4  7  1  0  0  0
  5  6  2  0  0  0
  5 28  1  0  0  0
  6 29  1  0  0  0
  7  8  1  0  0  0
  7 30  1  0  0  0
  7 31  1  0  0  0
  8 17  1  0  0  0
  8  9  1  0  0  0
  9 10  2  0  0  0
  9 11  1  0  0  0
 11 16  2  0  0  0
 11 12  1  0  0  0
 12 13  2  0  0  0
 12 32  1  0  0  0
 13 14  1  0  0  0
 13 33  1  0  0  0
 14 15  2  0  0  0
 14 19  1  0  0  0
 15 16  1  0  0  0
 15 34  1  0  0  0
 16 17  1  0  0  0
 17 18  2  0  0  0
 19 20  1  0  0  0
 19 35  1  0  0  0
 19 36  1  0  0  0
 20 21  1  0  0  0
 20 37  1  0  0  0
 20 38  1  0  0  0
 21 22  2  0  0  0
 21 23  1  0  0  0
 23 24  1  0  0  0
 23 39  1  0  0  0
 24 40  1  0  0  0
M  END
> <s_m_entry_id>
53545

> <s_m_entry_name>
ligand_docking-pose.38

> <s_m_Source_Path>
/home/csk/Desktop/cluster/DUD-E-result/hdac8

> <s_m_Source_File>
ligand_docking-pose.sdf

> <i_m_Source_File_Index>
38

> <i_lp_mmshare_version>
53161

> <r_lp_tautomer_probability>
1

> <s_lp_Force_Field>
OPLS_2005

> <r_lp_Energy>
40.67826

> <b_lp_Chiralities_Consistent>
1

> <s_lp_Variant>
329971-1

> <s_i_glide_gridfile>
glide-grid_3f07

> <i_i_glide_lignum>
164

> <i_i_glide_rotatable_bonds>
7

> <r_i_docking_score>
-7.86334925950911

> <r_i_glide_ligand_efficiency>
-0.327639552479546

> <r_i_glide_ligand_efficiency_sa>
-0.945076006557507

> <r_i_glide_ligand_efficiency_ln>
-1.88206030338634

> <r_i_glide_gscore>
-7.86334925950911

> <r_i_glide_lipo>
-0.959870599848157

> <r_i_glide_hbond>
-0.506400957589514

> <r_i_glide_metal>
-2.3

> <r_i_glide_rewards>
-1.35600320441732

> <r_i_glide_evdw>
-30.4677867889404

> <r_i_glide_ecoul>
-13.8531627655029

> <r_i_glide_erotb>
1.06813209124738

> <r_i_glide_esite>
-0.207842834629046

> <r_i_glide_emodel>
-67.1376184952206

> <r_i_glide_energy>
-44.3209495544434

> <r_i_glide_einternal>
4.85462951660156

> <i_i_glide_confnum>
34

> <i_i_glide_posenum>
51

> <r_i_glide_eff_state_penalty>
0

> <i_f3d_flags>
0

> <s_user_duplicate_titles>
329971

> <s_m_subgroup_title>
dock_pv

> <s_m_subgroupid>
dock_pv1

> <b_m_subgroup_collapsed>
0

$$$$
238023
                    3D
 Schrodinger Suite 2021-1.
 43 44  0  0  1  0            999 V2000
  -18.1318   28.3137  -40.7689 C   0  0  0  0  0  0
  -18.3231   29.2902  -39.7928 C   0  0  0  0  0  0
  -19.0127   30.4589  -40.1105 C   0  0  0  0  0  0
  -19.5020   30.6502  -41.4058 C   0  0  0  0  0  0
  -19.2994   29.6690  -42.3810 C   0  0  0  0  0  0
  -18.6130   28.4993  -42.0628 C   0  0  0  0  0  0
  -20.2282   31.9415  -41.7663 C   0  0  0  0  0  0
  -21.7483   31.7857  -41.9794 C   0  0  0  0  0  0
  -22.5427   31.4486  -40.6936 C   0  0  0  0  0  0
  -24.0617   31.4009  -40.9197 C   0  0  0  0  0  0
  -24.5225   30.8690  -41.9301 O   0  0  0  0  0  0
  -24.8358   31.9682  -39.9812 N   0  0  0  0  0  0
  -26.2981   32.0256  -40.0253 C   0  0  0  0  0  0
  -27.0539   30.7209  -39.7498 C   0  0  0  0  0  0
  -28.2728   30.4932  -40.3902 C   0  0  0  0  0  0
  -29.0130   29.3484  -40.1083 C   0  0  0  0  0  0
  -28.5530   28.4103  -39.1758 C   0  0  0  0  0  0
  -27.3061   28.6184  -38.5781 C   0  0  0  0  0  0
  -26.5587   29.7605  -38.8634 C   0  0  0  0  0  0
  -29.4130   27.2238  -38.7975 C   0  0  0  0  0  0
  -30.2130   26.7158  -39.5810 O   0  0  0  0  0  0
  -29.4130   26.8674  -37.5181 N   0  0  0  0  0  0
  -30.2130   25.7811  -37.1074 O   0  0  0  0  0  0
  -17.6049   27.4030  -40.5213 H   0  0  0  0  0  0
  -17.9441   29.1390  -38.7925 H   0  0  0  0  0  0
  -19.1618   31.2132  -39.3513 H   0  0  0  0  0  0
  -19.6695   29.8143  -43.3853 H   0  0  0  0  0  0
  -18.4585   27.7381  -42.8138 H   0  0  0  0  0  0
  -19.7763   32.3291  -42.6807 H   0  0  0  0  0  0
  -20.0336   32.7055  -41.0115 H   0  0  0  0  0  0
  -21.9287   31.0332  -42.7497 H   0  0  0  0  0  0
  -22.1248   32.7246  -42.3904 H   0  0  0  0  0  0
  -22.3110   32.1796  -39.9161 H   0  0  0  0  0  0
  -22.2372   30.4760  -40.3072 H   0  0  0  0  0  0
  -24.3986   32.4746  -39.2193 H   0  0  0  0  0  0
  -26.6038   32.4390  -40.9892 H   0  0  0  0  0  0
  -26.6130   32.7502  -39.2733 H   0  0  0  0  0  0
  -28.6586   31.2104  -41.0992 H   0  0  0  0  0  0
  -29.9649   29.2210  -40.6030 H   0  0  0  0  0  0
  -26.9160   27.8992  -37.8758 H   0  0  0  0  0  0
  -25.6033   29.9078  -38.3810 H   0  0  0  0  0  0
  -28.8288   27.2524  -36.7810 H   0  0  0  0  0  0
  -29.5823   25.0674  -36.9633 H   0  0  0  0  0  0
  1  6  1  0  0  0
  1  2  2  0  0  0
  1 24  1  0  0  0
  2  3  1  0  0  0
  2 25  1  0  0  0
  3  4  2  0  0  0
  3 26  1  0  0  0
  4  5  1  0  0  0
  4  7  1  0  0  0
  5  6  2  0  0  0
  5 27  1  0  0  0
  6 28  1  0  0  0
  7  8  1  0  0  0
  7 29  1  0  0  0
  7 30  1  0  0  0
  8  9  1  0  0  0
  8 31  1  0  0  0
  8 32  1  0  0  0
  9 10  1  0  0  0
  9 33  1  0  0  0
  9 34  1  0  0  0
 10 11  2  0  0  0
 10 12  1  0  0  0
 12 13  1  0  0  0
 12 35  1  0  0  0
 13 14  1  0  0  0
 13 36  1  0  0  0
 13 37  1  0  0  0
 14 19  1  0  0  0
 14 15  2  0  0  0
 15 16  1  0  0  0
 15 38  1  0  0  0
 16 17  2  0  0  0
 16 39  1  0  0  0
 17 18  1  0  0  0
 17 20  1  0  0  0
 18 19  2  0  0  0
 18 40  1  0  0  0
 19 41  1  0  0  0
 20 21  2  0  0  0
 20 22  1  0  0  0
 22 23  1  0  0  0
 22 42  1  0  0  0
 23 43  1  0  0  0
M  END
> <s_m_entry_id>
53546

> <s_m_entry_name>
ligand_docking-pose.39

> <s_m_Source_Path>
/home/csk/Desktop/cluster/DUD-E-result/hdac8

> <s_m_Source_File>
ligand_docking-pose.sdf

> <i_m_Source_File_Index>
39

> <i_lp_mmshare_version>
53161

> <r_lp_tautomer_probability>
1

> <s_lp_Force_Field>
OPLS_2005

> <r_lp_Energy>
20.171665

> <b_lp_Chiralities_Consistent>
1

> <s_lp_Variant>
238023-1

> <s_i_glide_gridfile>
glide-grid_3f07

> <i_i_glide_lignum>
124

> <i_i_glide_rotatable_bonds>
10

> <r_i_docking_score>
-7.86249598926307

> <r_i_glide_ligand_efficiency>
-0.34184765170709

> <r_i_glide_ligand_efficiency_sa>
-0.972169247813514

> <r_i_glide_ligand_efficiency_ln>
-1.90122282337579

> <r_i_glide_gscore>
-7.86249598926307

> <r_i_glide_lipo>
-1.01280097083219

> <r_i_glide_hbond>
-0.647750253874143

> <r_i_glide_metal>
-2.3

> <r_i_glide_rewards>
-1.59304314792152

> <r_i_glide_evdw>
-23.5323390960693

> <r_i_glide_ecoul>
-15.8665781021118

> <r_i_glide_erotb>
1.52165709599867

> <r_i_glide_esite>
-0.273955042513641

> <r_i_glide_emodel>
-60.2909587884798

> <r_i_glide_energy>
-39.3989171981812

> <r_i_glide_einternal>
3.44619607925415

> <i_i_glide_confnum>
6

> <i_i_glide_posenum>
67

> <r_i_glide_eff_state_penalty>
0

> <i_f3d_flags>
0

> <s_user_duplicate_titles>
238023

> <s_m_subgroup_title>
dock_pv

> <s_m_subgroupid>
dock_pv1

> <b_m_subgroup_collapsed>
0

$$$$
36434
                    3D
 Schrodinger Suite 2021-1.
 50 52  0  0  1  0            999 V2000
  -22.9805   30.8984  -50.0058 C   0  0  0  0  0  0
  -24.3531   31.0297  -49.8179 C   0  0  0  0  0  0
  -24.8546   31.2690  -48.5411 C   0  0  0  0  0  0
  -23.9941   31.3846  -47.4377 C   0  0  0  0  0  0
  -22.6130   31.2659  -47.6555 C   0  0  0  0  0  0
  -22.1079   31.0156  -48.9287 C   0  0  0  0  0  0
  -24.5366   31.6219  -46.0623 C   0  0  0  0  0  0
  -25.7214   32.3440  -45.8716 C   0  0  0  0  0  0
  -26.2245   32.5734  -44.5946 C   0  0  0  0  0  0
  -25.5559   32.0894  -43.4633 C   0  0  0  0  0  0
  -24.3713   31.3585  -43.6499 C   0  0  0  0  0  0
  -23.8732   31.1302  -44.9303 C   0  0  0  0  0  0
  -26.1225   32.3693  -42.0845 C   0  0  0  0  0  0
  -27.1383   33.0551  -41.9439 O   0  0  0  0  0  0
  -25.4859   31.8069  -41.0405 N   0  0  0  0  0  0
  -25.8970   31.8901  -39.6344 C   0  0  0  0  0  0
  -26.8330   30.7375  -39.1786 C   0  0  2  0  0  0
  -26.1879   29.3523  -39.3718 C   0  0  0  0  0  0
  -27.0550   28.2093  -38.8054 C   0  0  0  0  0  0
  -28.4886   28.2612  -39.3605 C   0  0  2  0  0  0
  -29.1590   29.6590  -39.3825 C   0  0  0  0  0  0
  -28.1918   30.7327  -39.9189 C   0  0  0  0  0  0
  -29.4130   27.1473  -38.8220 C   0  0  0  0  0  0
  -30.2224   26.6110  -39.5810 O   0  0  0  0  0  0
  -29.4130   26.8685  -37.5211 N   0  0  0  0  0  0
  -30.2736   25.8619  -37.0437 O   0  0  0  0  0  0
  -22.5867   30.7141  -50.9948 H   0  0  0  0  0  0
  -25.0279   30.9494  -50.6574 H   0  0  0  0  0  0
  -25.9247   31.3478  -48.4165 H   0  0  0  0  0  0
  -21.9131   31.3635  -46.8380 H   0  0  0  0  0  0
  -21.0422   30.9187  -49.0795 H   0  0  0  0  0  0
  -26.2588   32.7538  -46.7137 H   0  0  0  0  0  0
  -27.1390   33.1419  -44.4954 H   0  0  0  0  0  0
  -23.8127   30.9623  -42.8150 H   0  0  0  0  0  0
  -22.9594   30.5637  -45.0328 H   0  0  0  0  0  0
  -24.6129   31.3365  -41.2158 H   0  0  0  0  0  0
  -26.3701   32.8589  -39.4566 H   0  0  0  0  0  0
  -24.9719   31.8594  -39.0567 H   0  0  0  0  0  0
  -27.0137   30.8683  -38.1113 H   0  0  0  0  0  0
  -25.9731   29.1882  -40.4293 H   0  0  0  0  0  0
  -25.2106   29.3380  -38.8864 H   0  0  0  0  0  0
  -27.0283   28.3000  -37.7199 H   0  0  0  0  0  0
  -26.6130   27.2881  -39.1810 H   0  0  0  0  0  0
  -28.3270   27.9724  -40.3810 H   0  0  0  0  0  0
  -30.0174   29.6690  -40.0552 H   0  0  0  0  0  0
  -29.4462   29.9703  -38.3810 H   0  0  0  0  0  0
  -28.0404   30.5924  -40.9902 H   0  0  0  0  0  0
  -28.6523   31.7169  -39.8368 H   0  0  0  0  0  0
  -28.8224   27.2693  -36.7941 H   0  0  0  0  0  0
  -29.6848   25.1253  -36.8492 H   0  0  0  0  0  0
  1  6  1  0  0  0
  1  2  2  0  0  0
  1 27  1  0  0  0
  2  3  1  0  0  0
  2 28  1  0  0  0
  3  4  2  0  0  0
  3 29  1  0  0  0
  4  5  1  0  0  0
  4  7  1  0  0  0
  5  6  2  0  0  0
  5 30  1  0  0  0
  6 31  1  0  0  0
  7 12  1  0  0  0
  7  8  2  0  0  0
  8  9  1  0  0  0
  8 32  1  0  0  0
  9 10  2  0  0  0
  9 33  1  0  0  0
 10 11  1  0  0  0
 10 13  1  0  0  0
 11 12  2  0  0  0
 11 34  1  0  0  0
 12 35  1  0  0  0
 13 14  2  0  0  0
 13 15  1  0  0  0
 15 16  1  0  0  0
 15 36  1  0  0  0
 16 17  1  0  0  0
 16 37  1  0  0  0
 16 38  1  0  0  0
 17 22  1  0  0  0
 17 18  1  0  0  0
 17 39  1  0  0  0
 18 19  1  0  0  0
 18 40  1  0  0  0
 18 41  1  0  0  0
 19 20  1  0  0  0
 19 42  1  0  0  0
 19 43  1  0  0  0
 20 21  1  0  0  0
 20 23  1  0  0  0
 20 44  1  0  0  0
 21 22  1  0  0  0
 21 45  1  0  0  0
 21 46  1  0  0  0
 22 47  1  0  0  0
 22 48  1  0  0  0
 23 24  2  0  0  0
 23 25  1  0  0  0
 25 26  1  0  0  0
 25 49  1  0  0  0
 26 50  1  0  0  0
M  END
> <s_m_entry_id>
53550

> <s_m_entry_name>
ligand_docking-pose.43

> <s_m_Source_Path>
/home/csk/Desktop/cluster/DUD-E-result/hdac8

> <s_m_Source_File>
ligand_docking-pose.sdf

> <i_m_Source_File_Index>
43

> <i_lp_mmshare_version>
53161

> <r_lp_tautomer_probability>
1

> <s_lp_Force_Field>
OPLS_2005

> <r_lp_Energy>
37.841847

> <b_lp_Chiralities_Consistent>
1

> <s_lp_Variant>
36434-2

> <s_i_glide_gridfile>
glide-grid_3f07

> <i_i_glide_lignum>
84

> <i_i_glide_rotatable_bonds>
8

> <r_i_docking_score>
-7.79570632646303

> <r_i_glide_ligand_efficiency>
-0.299834858710117

> <r_i_glide_ligand_efficiency_sa>
-0.888259589135522

> <r_i_glide_ligand_efficiency_ln>
-1.830796050971

> <r_i_glide_gscore>
-7.79570632646303

> <r_i_glide_lipo>
-1.1114218377157

> <r_i_glide_hbond>
-0.608

> <r_i_glide_metal>
-2.3

> <r_i_glide_rewards>
-1.18025924513817

> <r_i_glide_evdw>
-20.9430408477783

> <r_i_glide_ecoul>
-15.9751920700073

> <r_i_glide_erotb>
1.07558996910591

> <r_i_glide_esite>
-0.228184359825056

> <r_i_glide_emodel>
-53.7842398775864

> <r_i_glide_energy>
-36.9182329177856

> <r_i_glide_einternal>
6.18436336517334

> <i_i_glide_confnum>
20

> <i_i_glide_posenum>
398

> <r_i_glide_eff_state_penalty>
0

> <i_f3d_flags>
0

> <s_user_duplicate_titles>
36434

> <s_m_subgroup_title>
dock_pv

> <s_m_subgroupid>
dock_pv1

> <b_m_subgroup_collapsed>
0

$$$$
235091
                    3D
 Schrodinger Suite 2021-1.
 45 47  0  0  1  0            999 V2000
  -28.3408   34.1787  -46.0857 C   0  0  0  0  0  0
  -28.4856   33.4256  -47.2522 C   0  0  0  0  0  0
  -27.7051   32.2921  -47.4837 C   0  0  0  0  0  0
  -26.7857   31.9432  -46.4898 C   0  0  0  0  0  0
  -26.6118   32.6881  -45.3000 C   0  0  0  0  0  0
  -27.4078   33.8302  -45.1035 C   0  0  0  0  0  0
  -25.5853   32.0103  -44.5589 C   0  0  0  0  0  0
  -25.2467   30.9179  -45.3544 C   0  0  0  0  0  0
  -25.9503   30.8690  -46.5190 O   0  0  0  0  0  0
  -25.0215   32.4318  -43.2145 C   0  0  0  0  0  0
  -24.3843   31.2690  -42.4260 C   0  0  0  0  0  0
  -23.9261   31.6652  -41.0961 N   0  0  1  0  0  0
  -24.9420   32.1061  -40.1370 C   0  0  0  0  0  0
  -26.0219   31.0570  -39.8971 C   0  0  0  0  0  0
  -27.2133   31.0879  -40.6255 C   0  0  0  0  0  0
  -28.1797   30.1078  -40.4213 C   0  0  0  0  0  0
  -27.9737   29.0976  -39.4771 C   0  0  0  0  0  0
  -26.7965   29.0973  -38.7254 C   0  0  0  0  0  0
  -25.8230   30.0690  -38.9342 C   0  0  0  0  0  0
  -29.0160   28.0690  -39.3061 C   0  0  0  0  0  0
  -29.0920   27.1206  -38.3439 C   0  0  0  0  0  0
  -30.1807   26.1707  -38.2723 C   0  0  0  0  0  0
  -31.0130   26.0690  -39.1810 O   0  0  0  0  0  0
  -30.2130   25.4402  -37.1464 N   0  0  0  0  0  0
  -31.2180   24.4690  -37.0126 O   0  0  0  0  0  0
  -28.9635   35.0510  -45.9447 H   0  0  0  0  0  0
  -29.2232   33.7237  -47.9852 H   0  0  0  0  0  0
  -27.8130   31.7004  -48.3810 H   0  0  0  0  0  0
  -27.3021   34.4269  -44.2097 H   0  0  0  0  0  0
  -24.5284   30.1210  -45.2269 H   0  0  0  0  0  0
  -25.8263   32.8706  -42.6282 H   0  0  0  0  0  0
  -24.2864   33.2262  -43.3505 H   0  0  0  0  0  0
  -23.5263   30.8903  -42.9829 H   0  0  0  0  0  0
  -25.0692   30.4226  -42.3574 H   0  0  0  0  0  0
  -23.2826   31.0073  -40.6783 H   0  0  0  0  0  0
  -25.3682   33.0541  -40.4664 H   0  0  0  0  0  0
  -24.4125   32.2870  -39.2005 H   0  0  0  0  0  0
  -27.3846   31.8559  -41.3640 H   0  0  0  0  0  0
  -29.0847   30.1359  -41.0115 H   0  0  0  0  0  0
  -26.6130   28.3357  -37.9835 H   0  0  0  0  0  0
  -24.9070   30.0419  -38.3618 H   0  0  0  0  0  0
  -29.7931   28.1103  -40.0547 H   0  0  0  0  0  0
  -28.3360   27.0516  -37.5810 H   0  0  0  0  0  0
  -29.5657   25.4595  -36.3698 H   0  0  0  0  0  0
  -30.7567   23.6382  -37.1810 H   0  0  0  0  0  0
  1  6  1  0  0  0
  1  2  2  0  0  0
  1 26  1  0  0  0
  2  3  1  0  0  0
  2 27  1  0  0  0
  3  4  2  0  0  0
  3 28  1  0  0  0
  4  9  1  0  0  0
  4  5  1  0  0  0
  5  6  2  0  0  0
  5  7  1  0  0  0
  6 29  1  0  0  0
  7  8  2  0  0  0
  7 10  1  0  0  0
  8  9  1  0  0  0
  8 30  1  0  0  0
 10 11  1  0  0  0
 10 31  1  0  0  0
 10 32  1  0  0  0
 11 12  1  0  0  0
 11 33  1  0  0  0
 11 34  1  0  0  0
 12 13  1  0  0  0
 12 35  1  0  0  0
 13 14  1  0  0  0
 13 36  1  0  0  0
 13 37  1  0  0  0
 14 19  1  0  0  0
 14 15  2  0  0  0
 15 16  1  0  0  0
 15 38  1  0  0  0
 16 17  2  0  0  0
 16 39  1  0  0  0
 17 18  1  0  0  0
 17 20  1  0  0  0
 18 19  2  0  0  0
 18 40  1  0  0  0
 19 41  1  0  0  0
 20 21  2  0  0  0
 20 42  1  0  0  0
 21 22  1  0  0  0
 21 43  1  0  0  0
 22 23  2  0  0  0
 22 24  1  0  0  0
 24 25  1  0  0  0
 24 44  1  0  0  0
 25 45  1  0  0  0
M  END
> <s_m_entry_id>
53551

> <s_m_entry_name>
ligand_docking-pose.44

> <s_m_Source_Path>
/home/csk/Desktop/cluster/DUD-E-result/hdac8

> <s_m_Source_File>
ligand_docking-pose.sdf

> <i_m_Source_File_Index>
44

> <i_lp_mmshare_version>
53161

> <r_lp_tautomer_probability>
1

> <s_lp_Force_Field>
OPLS_2005

> <r_lp_Energy>
21.020795

> <b_lp_Chiralities_Consistent>
1

> <s_lp_Variant>
235091-1

> <s_i_glide_gridfile>
glide-grid_3f07

> <i_i_glide_lignum>
45

> <i_i_glide_rotatable_bonds>
9

> <r_i_docking_score>
-7.79002289761436

> <r_i_glide_ligand_efficiency>
-0.311600915904574

> <r_i_glide_ligand_efficiency_sa>
-0.911126604370749

> <r_i_glide_ligand_efficiency_ln>
-1.84646887488273

> <r_i_glide_gscore>
-7.79002289761436

> <r_i_glide_lipo>
-1.47973346716382

> <r_i_glide_hbond>
-0.237511888709554

> <r_i_glide_metal>
-2.3

> <r_i_glide_rewards>
-1.38768957760195

> <r_i_glide_evdw>
-35.2352447509766

> <r_i_glide_ecoul>
-11.2775888442993

> <r_i_glide_erotb>
1.1683126000547

> <r_i_glide_esite>
-0.1

> <r_i_glide_emodel>
-71.6510663673169

> <r_i_glide_energy>
-46.5128335952759

> <r_i_glide_einternal>
2.63714146614075

> <i_i_glide_confnum>
7

> <i_i_glide_posenum>
255

> <r_i_glide_eff_state_penalty>
0

> <i_f3d_flags>
0

> <s_user_duplicate_titles>
235091

> <s_m_subgroup_title>
dock_pv

> <s_m_subgroupid>
dock_pv1

> <b_m_subgroup_collapsed>
0

$$$$
234673
                    3D
 Schrodinger Suite 2021-1.
 45 47  0  0  1  0            999 V2000
  -25.9428   30.2433  -38.9414 C   0  0  0  0  0  0
  -26.8600   29.2125  -38.7587 C   0  0  0  0  0  0
  -27.9977   29.1206  -39.5643 C   0  0  0  0  0  0
  -28.1913   30.0690  -40.5756 C   0  0  0  0  0  0
  -27.2697   31.0954  -40.7697 C   0  0  0  0  0  0
  -26.1466   31.1891  -39.9457 C   0  0  0  0  0  0
  -25.1639   32.3453  -40.1010 C   0  0  0  0  0  0
  -24.5561   32.4416  -41.4249 N   0  0  2  0  0  0
  -23.6304   31.3460  -41.6920 C   0  0  0  0  0  0
  -22.8787   31.5697  -43.0238 C   0  0  0  0  0  0
  -23.6716   31.4236  -44.3256 C   0  0  0  0  0  0
  -22.9679   31.5235  -45.5430 C   0  0  0  0  0  0
  -23.6286   31.4405  -46.7761 C   0  0  0  0  0  0
  -25.0070   31.2690  -46.7535 C   0  0  0  0  0  0
  -25.6976   31.1571  -45.5810 C   0  0  0  0  0  0
  -25.0650   31.2171  -44.3452 C   0  0  0  0  0  0
  -27.0130   30.9629  -45.8529 O   0  0  0  0  0  0
  -27.1502   31.2053  -47.2265 C   0  0  0  0  0  0
  -25.8696   31.1471  -47.7968 O   0  0  0  0  0  0
  -29.0199   28.0705  -39.3698 C   0  0  0  0  0  0
  -29.1060   27.1640  -38.3655 C   0  0  0  0  0  0
  -30.1822   26.1964  -38.2759 C   0  0  0  0  0  0
  -31.0130   26.0690  -39.1810 O   0  0  0  0  0  0
  -30.2130   25.4763  -37.1423 N   0  0  0  0  0  0
  -31.1866   24.4697  -37.0166 O   0  0  0  0  0  0
  -25.0743   30.3062  -38.3015 H   0  0  0  0  0  0
  -26.6750   28.4888  -37.9810 H   0  0  0  0  0  0
  -29.0606   30.0228  -41.2157 H   0  0  0  0  0  0
  -27.4279   31.8248  -41.5508 H   0  0  0  0  0  0
  -25.7109   33.2690  -39.9097 H   0  0  0  0  0  0
  -24.3801   32.3019  -39.3420 H   0  0  0  0  0  0
  -24.0827   33.3313  -41.5096 H   0  0  0  0  0  0
  -22.9137   31.2111  -40.8795 H   0  0  0  0  0  0
  -24.2130   30.4273  -41.7580 H   0  0  0  0  0  0
  -22.4197   32.5597  -43.0160 H   0  0  0  0  0  0
  -22.0453   30.8690  -43.0680 H   0  0  0  0  0  0
  -21.8964   31.6690  -45.5345 H   0  0  0  0  0  0
  -23.0795   31.5169  -47.7027 H   0  0  0  0  0  0
  -25.6403   31.1281  -43.4368 H   0  0  0  0  0  0
  -27.5714   32.2012  -47.3791 H   0  0  0  0  0  0
  -27.8130   30.4690  -47.6784 H   0  0  0  0  0  0
  -29.7796   28.0651  -40.1368 H   0  0  0  0  0  0
  -28.3686   27.1431  -37.5810 H   0  0  0  0  0  0
  -29.5672   25.5098  -36.3649 H   0  0  0  0  0  0
  -30.6969   23.6543  -37.1810 H   0  0  0  0  0  0
  1  6  1  0  0  0
  1  2  2  0  0  0
  1 26  1  0  0  0
  2  3  1  0  0  0
  2 27  1  0  0  0
  3  4  2  0  0  0
  3 20  1  0  0  0
  4  5  1  0  0  0
  4 28  1  0  0  0
  5  6  2  0  0  0
  5 29  1  0  0  0
  6  7  1  0  0  0
  7  8  1  0  0  0
  7 30  1  0  0  0
  7 31  1  0  0  0
  8  9  1  0  0  0
  8 32  1  0  0  0
  9 10  1  0  0  0
  9 33  1  0  0  0
  9 34  1  0  0  0
 10 11  1  0  0  0
 10 35  1  0  0  0
 10 36  1  0  0  0
 11 16  1  0  0  0
 11 12  2  0  0  0
 12 13  1  0  0  0
 12 37  1  0  0  0
 13 14  2  0  0  0
 13 38  1  0  0  0
 14 19  1  0  0  0
 14 15  1  0  0  0
 15 16  2  0  0  0
 15 17  1  0  0  0
 16 39  1  0  0  0
 17 18  1  0  0  0
 18 19  1  0  0  0
 18 40  1  0  0  0
 18 41  1  0  0  0
 20 21  2  0  0  0
 20 42  1  0  0  0
 21 22  1  0  0  0
 21 43  1  0  0  0
 22 23  2  0  0  0
 22 24  1  0  0  0
 24 25  1  0  0  0
 24 44  1  0  0  0
 25 45  1  0  0  0
M  END
> <s_m_entry_id>
53552

> <s_m_entry_name>
ligand_docking-pose.45

> <s_m_Source_Path>
/home/csk/Desktop/cluster/DUD-E-result/hdac8

> <s_m_Source_File>
ligand_docking-pose.sdf

> <i_m_Source_File_Index>
45

> <i_lp_mmshare_version>
53161

> <r_lp_tautomer_probability>
1

> <s_lp_Force_Field>
OPLS_2005

> <r_lp_Energy>
32.387249

> <b_lp_Chiralities_Consistent>
1

> <s_lp_Variant>
234673-1

> <s_i_glide_gridfile>
glide-grid_3f07

> <i_i_glide_lignum>
166

> <i_i_glide_rotatable_bonds>
9

> <r_i_docking_score>
-7.77233106809614

> <r_i_glide_ligand_efficiency>
-0.310893242723846

> <r_i_glide_ligand_efficiency_sa>
-0.909057355439662

> <r_i_glide_ligand_efficiency_ln>
-1.84227538110557

> <r_i_glide_gscore>
-7.77233106809614

> <r_i_glide_lipo>
-1.17635258554252

> <r_i_glide_hbond>
-0.237510149580645

> <r_i_glide_metal>
-2.3

> <r_i_glide_rewards>
-1.35451268151854

> <r_i_glide_evdw>
-35.6765823364258

> <r_i_glide_ecoul>
-13.0952672958374

> <r_i_glide_erotb>
1.14416355974246

> <r_i_glide_esite>
-0.1

> <r_i_glide_emodel>
-74.6572087133404

> <r_i_glide_energy>
-48.7718496322632

> <r_i_glide_einternal>
3.15874242782593

> <i_i_glide_confnum>
7

> <i_i_glide_posenum>
197

> <r_i_glide_eff_state_penalty>
0

> <i_f3d_flags>
0

> <s_user_duplicate_titles>
234673

> <s_m_subgroup_title>
dock_pv

> <s_m_subgroupid>
dock_pv1

> <b_m_subgroup_collapsed>
0

$$$$
234614
                    3D
 Schrodinger Suite 2021-1.
 46 48  0  0  1  0            999 V2000
  -23.4130   31.2690  -48.2038 C   0  0  0  0  0  0
  -24.6789   31.2717  -48.7850 C   0  0  0  0  0  0
  -25.8433   31.2695  -48.0155 C   0  0  0  0  0  0
  -25.6831   31.2690  -46.6251 C   0  0  0  0  0  0
  -24.3970   31.2699  -45.9982 C   0  0  0  0  0  0
  -23.2558   31.2690  -46.8182 C   0  0  0  0  0  0
  -24.5984   31.2740  -44.5704 C   0  0  0  0  0  0
  -25.9725   31.2491  -44.3998 C   0  0  0  0  0  0
  -26.6130   31.2561  -45.6115 N   0  0  0  0  0  0
  -23.5013   31.3040  -43.5127 C   0  0  0  0  0  0
  -23.9762   31.2129  -42.0453 C   0  0  0  0  0  0
  -24.7626   32.3797  -41.6526 N   0  0  1  0  0  0
  -25.1843   32.3142  -40.2530 C   0  0  0  0  0  0
  -26.2090   31.2154  -39.9824 C   0  0  0  0  0  0
  -27.3790   31.1419  -40.7401 C   0  0  0  0  0  0
  -28.2892   30.1139  -40.5191 C   0  0  0  0  0  0
  -28.0465   29.1522  -39.5334 C   0  0  0  0  0  0
  -26.8859   29.2461  -38.7599 C   0  0  0  0  0  0
  -25.9717   30.2736  -38.9804 C   0  0  0  0  0  0
  -29.0471   28.0848  -39.3428 C   0  0  0  0  0  0
  -29.1115   27.1625  -38.3542 C   0  0  0  0  0  0
  -30.1835   26.1911  -38.2729 C   0  0  0  0  0  0
  -31.0130   26.0690  -39.1810 O   0  0  0  0  0  0
  -30.2130   25.4675  -37.1420 N   0  0  0  0  0  0
  -31.1935   24.4690  -37.0149 O   0  0  0  0  0  0
  -27.6193   31.2521  -45.6989 H   0  0  0  0  0  0
  -22.5374   31.2724  -48.8377 H   0  0  0  0  0  0
  -24.7599   31.2807  -49.8624 H   0  0  0  0  0  0
  -26.8202   31.2697  -48.4781 H   0  0  0  0  0  0
  -22.2668   31.2690  -46.3819 H   0  0  0  0  0  0
  -26.5541   31.2438  -43.4902 H   0  0  0  0  0  0
  -22.8845   32.1955  -43.6338 H   0  0  0  0  0  0
  -22.8242   30.4690  -43.6927 H   0  0  0  0  0  0
  -23.1137   31.0972  -41.3864 H   0  0  0  0  0  0
  -24.5987   30.3235  -41.9351 H   0  0  0  0  0  0
  -24.2350   33.2273  -41.8135 H   0  0  0  0  0  0
  -25.6394   33.2675  -39.9810 H   0  0  0  0  0  0
  -24.3153   32.2183  -39.5983 H   0  0  0  0  0  0
  -27.5699   31.8765  -41.5082 H   0  0  0  0  0  0
  -29.1816   30.0691  -41.1271 H   0  0  0  0  0  0
  -26.6746   28.5208  -37.9888 H   0  0  0  0  0  0
  -25.0716   30.3252  -38.3843 H   0  0  0  0  0  0
  -29.8130   28.0765  -40.1034 H   0  0  0  0  0  0
  -28.3635   27.1356  -37.5810 H   0  0  0  0  0  0
  -29.5682   25.4994  -36.3636 H   0  0  0  0  0  0
  -30.7102   23.6502  -37.1810 H   0  0  0  0  0  0
  1  6  1  0  0  0
  1  2  2  0  0  0
  1 27  1  0  0  0
  2  3  1  0  0  0
  2 28  1  0  0  0
  3  4  2  0  0  0
  3 29  1  0  0  0
  4  9  1  0  0  0
  4  5  1  0  0  0
  5  6  2  0  0  0
  5  7  1  0  0  0
  6 30  1  0  0  0
  7  8  2  0  0  0
  7 10  1  0  0  0
  8  9  1  0  0  0
  8 31  1  0  0  0
  9 26  1  0  0  0
 10 11  1  0  0  0
 10 32  1  0  0  0
 10 33  1  0  0  0
 11 12  1  0  0  0
 11 34  1  0  0  0
 11 35  1  0  0  0
 12 13  1  0  0  0
 12 36  1  0  0  0
 13 14  1  0  0  0
 13 37  1  0  0  0
 13 38  1  0  0  0
 14 19  1  0  0  0
 14 15  2  0  0  0
 15 16  1  0  0  0
 15 39  1  0  0  0
 16 17  2  0  0  0
 16 40  1  0  0  0
 17 18  1  0  0  0
 17 20  1  0  0  0
 18 19  2  0  0  0
 18 41  1  0  0  0
 19 42  1  0  0  0
 20 21  2  0  0  0
 20 43  1  0  0  0
 21 22  1  0  0  0
 21 44  1  0  0  0
 22 23  2  0  0  0
 22 24  1  0  0  0
 24 25  1  0  0  0
 24 45  1  0  0  0
 25 46  1  0  0  0
M  END
> <s_m_entry_id>
53553

> <s_m_entry_name>
ligand_docking-pose.46

> <s_m_Source_Path>
/home/csk/Desktop/cluster/DUD-E-result/hdac8

> <s_m_Source_File>
ligand_docking-pose.sdf

> <i_m_Source_File_Index>
46

> <i_lp_mmshare_version>
53161

> <r_lp_tautomer_probability>
1

> <s_lp_Force_Field>
OPLS_2005

> <r_lp_Energy>
20.701911

> <b_lp_Chiralities_Consistent>
1

> <s_lp_Variant>
234614-1

> <s_i_glide_gridfile>
glide-grid_3f07

> <i_i_glide_lignum>
29

> <i_i_glide_rotatable_bonds>
9

> <r_i_docking_score>
-7.76845629085299

> <r_i_glide_ligand_efficiency>
-0.31073825163412

> <r_i_glide_ligand_efficiency_sa>
-0.908604158744524

> <r_i_glide_ligand_efficiency_ln>
-1.84135694278124

> <r_i_glide_gscore>
-7.76845629085299

> <r_i_glide_lipo>
-1.23007869528109

> <r_i_glide_hbond>
-0.237508944970279

> <r_i_glide_metal>
-2.3

> <r_i_glide_rewards>
-1.38819517755532

> <r_i_glide_evdw>
-36.7405815124512

> <r_i_glide_ecoul>
-12.3335828781128

> <r_i_glide_erotb>
1.17439303429318

> <r_i_glide_esite>
-0.1

> <r_i_glide_emodel>
-75.9178354289855

> <r_i_glide_energy>
-49.074164390564

> <r_i_glide_einternal>
1.57816386222839

> <i_i_glide_confnum>
1

> <i_i_glide_posenum>
252

> <r_i_glide_eff_state_penalty>
0

> <i_f3d_flags>
0

> <s_user_duplicate_titles>
234614

> <s_m_subgroup_title>
dock_pv

> <s_m_subgroupid>
dock_pv1

> <b_m_subgroup_collapsed>
0

$$$$
234666
                    3D
 Schrodinger Suite 2021-1.
 49 51  0  0  1  0            999 V2000
  -27.8130   31.6537  -46.2414 C   0  0  0  0  0  0
  -26.3902   31.5584  -45.9626 N   0  0  0  0  0  0
  -25.8289   31.4901  -44.7090 C   0  0  0  0  0  0
  -24.4502   31.3898  -44.7784 C   0  0  0  0  0  0
  -24.1514   31.3592  -46.1863 C   0  0  0  0  0  0
  -25.3863   31.4344  -46.9045 C   0  0  0  0  0  0
  -25.4388   31.3953  -48.3057 C   0  0  0  0  0  0
  -24.2252   31.2918  -48.9855 C   0  0  0  0  0  0
  -23.0094   31.2335  -48.3112 C   0  0  0  0  0  0
  -22.9566   31.2690  -46.9191 C   0  0  0  0  0  0
  -23.4264   31.3244  -43.6511 C   0  0  0  0  0  0
  -23.9887   31.1679  -42.2208 C   0  0  0  0  0  0
  -24.7302   32.3469  -41.7804 N   0  0  1  0  0  0
  -25.1044   32.2545  -40.3673 C   0  0  0  0  0  0
  -26.1424   31.1731  -40.0737 C   0  0  0  0  0  0
  -25.9308   30.2731  -39.0281 C   0  0  0  0  0  0
  -26.8557   29.2610  -38.7810 C   0  0  0  0  0  0
  -28.0056   29.1440  -39.5671 C   0  0  0  0  0  0
  -28.2252   30.0688  -40.5936 C   0  0  0  0  0  0
  -27.2997   31.0750  -40.8480 C   0  0  0  0  0  0
  -29.0135   28.0857  -39.3549 C   0  0  0  0  0  0
  -29.0872   27.1742  -38.3558 C   0  0  0  0  0  0
  -30.1651   26.2068  -38.2679 C   0  0  0  0  0  0
  -30.9860   26.0690  -39.1810 O   0  0  0  0  0  0
  -30.2130   25.4984  -37.1278 N   0  0  0  0  0  0
  -31.1893   24.4938  -37.0085 O   0  0  0  0  0  0
  -28.2052   30.6626  -46.4722 H   0  0  0  0  0  0
  -28.3332   32.0697  -45.3789 H   0  0  0  0  0  0
  -27.9776   32.3154  -47.0924 H   0  0  0  0  0  0
  -26.4665   31.5419  -43.8384 H   0  0  0  0  0  0
  -26.3743   31.4532  -48.8433 H   0  0  0  0  0  0
  -24.2261   31.2684  -50.0658 H   0  0  0  0  0  0
  -22.0907   31.1618  -48.8765 H   0  0  0  0  0  0
  -22.0042   31.2227  -46.4101 H   0  0  0  0  0  0
  -22.7672   32.1928  -43.6866 H   0  0  0  0  0  0
  -22.7741   30.4701  -43.8349 H   0  0  0  0  0  0
  -23.1683   30.9556  -41.5326 H   0  0  0  0  0  0
  -24.6640   30.3113  -42.2005 H   0  0  0  0  0  0
  -24.1865   33.1843  -41.9403 H   0  0  0  0  0  0
  -25.5321   33.2085  -40.0553 H   0  0  0  0  0  0
  -24.2185   32.1363  -39.7395 H   0  0  0  0  0  0
  -25.0407   30.3432  -38.4191 H   0  0  0  0  0  0
  -26.6609   28.5633  -37.9812 H   0  0  0  0  0  0
  -29.1100   30.0097  -41.2111 H   0  0  0  0  0  0
  -27.4705   31.7741  -41.6530 H   0  0  0  0  0  0
  -29.7831   28.0732  -40.1121 H   0  0  0  0  0  0
  -28.3407   27.1510  -37.5810 H   0  0  0  0  0  0
  -29.5774   25.5368  -36.3421 H   0  0  0  0  0  0
  -30.7015   23.6789  -37.1798 H   0  0  0  0  0  0
  1  2  1  0  0  0
  1 27  1  0  0  0
  1 28  1  0  0  0
  1 29  1  0  0  0
  2  6  1  0  0  0
  2  3  1  0  0  0
  3  4  2  0  0  0
  3 30  1  0  0  0
  4  5  1  0  0  0
  4 11  1  0  0  0
  5 10  2  0  0  0
  5  6  1  0  0  0
  6  7  2  0  0  0
  7  8  1  0  0  0
  7 31  1  0  0  0
  8  9  2  0  0  0
  8 32  1  0  0  0
  9 10  1  0  0  0
  9 33  1  0  0  0
 10 34  1  0  0  0
 11 12  1  0  0  0
 11 35  1  0  0  0
 11 36  1  0  0  0
 12 13  1  0  0  0
 12 37  1  0  0  0
 12 38  1  0  0  0
 13 14  1  0  0  0
 13 39  1  0  0  0
 14 15  1  0  0  0
 14 40  1  0  0  0
 14 41  1  0  0  0
 15 20  1  0  0  0
 15 16  2  0  0  0
 16 17  1  0  0  0
 16 42  1  0  0  0
 17 18  2  0  0  0
 17 43  1  0  0  0
 18 19  1  0  0  0
 18 21  1  0  0  0
 19 20  2  0  0  0
 19 44  1  0  0  0
 20 45  1  0  0  0
 21 22  2  0  0  0
 21 46  1  0  0  0
 22 23  1  0  0  0
 22 47  1  0  0  0
 23 24  2  0  0  0
 23 25  1  0  0  0
 25 26  1  0  0  0
 25 48  1  0  0  0
 26 49  1  0  0  0
M  END
> <s_m_entry_id>
53558

> <s_m_entry_name>
ligand_docking-pose.51

> <s_m_Source_Path>
/home/csk/Desktop/cluster/DUD-E-result/hdac8

> <s_m_Source_File>
ligand_docking-pose.sdf

> <i_m_Source_File_Index>
51

> <i_lp_mmshare_version>
53161

> <r_lp_tautomer_probability>
1

> <s_lp_Force_Field>
OPLS_2005

> <r_lp_Energy>
20.651752

> <b_lp_Chiralities_Consistent>
1

> <s_lp_Variant>
234666-1

> <s_i_glide_gridfile>
glide-grid_3f07

> <i_i_glide_lignum>
337

> <i_i_glide_rotatable_bonds>
9

> <r_i_docking_score>
-7.74493388142074

> <r_i_glide_ligand_efficiency>
-0.297882072362336

> <r_i_glide_ligand_efficiency_sa>
-0.882474467264065

> <r_i_glide_ligand_efficiency_ln>
-1.8188723088508

> <r_i_glide_gscore>
-7.74493388142074

> <r_i_glide_lipo>
-1.32089079832511

> <r_i_glide_hbond>
-0.23925817606833

> <r_i_glide_metal>
-2.3

> <r_i_glide_rewards>
-1.30142407744205

> <r_i_glide_evdw>
-37.8820266723633

> <r_i_glide_ecoul>
-12.2489252090454

> <r_i_glide_erotb>
1.24807928538972

> <r_i_glide_esite>
-0.1

> <r_i_glide_emodel>
-76.8370605468453

> <r_i_glide_energy>
-50.1309518814087

> <r_i_glide_einternal>
2.16522192955017

> <i_i_glide_confnum>
8

> <i_i_glide_posenum>
357

> <r_i_glide_eff_state_penalty>
0

> <i_f3d_flags>
0

> <s_user_duplicate_titles>
234666

> <s_m_subgroup_title>
dock_pv

> <s_m_subgroupid>
dock_pv1

> <b_m_subgroup_collapsed>
0

$$$$
329999
                    3D
 Schrodinger Suite 2021-1.
 38 40  0  0  1  0            999 V2000
  -19.3472   30.5714  -42.1202 C   0  0  0  0  0  0
  -19.3495   30.4684  -40.7310 C   0  0  0  0  0  0
  -20.3780   31.0556  -39.9974 C   0  0  0  0  0  0
  -21.4043   31.7387  -40.6544 C   0  0  0  0  0  0
  -21.3804   31.8599  -42.0473 C   0  0  0  0  0  0
  -20.3556   31.2684  -42.7811 C   0  0  0  0  0  0
  -22.5119   32.3947  -39.8351 C   0  0  0  0  0  0
  -23.8389   31.7648  -39.9543 N   0  0  0  0  0  0
  -24.6981   32.0251  -40.9733 C   0  0  0  0  0  0
  -24.5382   32.8011  -41.9158 O   0  0  0  0  0  0
  -25.8760   31.1636  -40.7123 C   0  0  0  0  0  0
  -27.0505   30.9950  -41.4372 C   0  0  0  0  0  0
  -27.9890   30.0700  -40.9760 C   0  0  0  0  0  0
  -27.7638   29.3228  -39.8075 C   0  0  0  0  0  0
  -26.5856   29.5460  -39.0738 C   0  0  0  0  0  0
  -25.6495   30.4656  -39.5590 C   0  0  0  0  0  0
  -24.3128   30.8674  -39.0491 C   0  0  0  0  0  0
  -23.7543   30.4689  -38.0265 O   0  0  0  0  0  0
  -28.7659   28.3001  -39.4487 C   0  0  0  0  0  0
  -28.7628   27.4482  -38.3982 C   0  0  0  0  0  0
  -29.8130   26.4690  -38.2306 C   0  0  0  0  0  0
  -30.4988   26.0691  -39.1810 O   0  0  0  0  0  0
  -29.9981   26.0680  -36.9639 N   0  0  0  0  0  0
  -30.9914   25.1069  -36.7094 O   0  0  0  0  0  0
  -18.5527   30.1137  -42.6914 H   0  0  0  0  0  0
  -18.5599   29.9324  -40.2245 H   0  0  0  0  0  0
  -20.3821   30.9717  -38.9196 H   0  0  0  0  0  0
  -22.1492   32.4109  -42.5666 H   0  0  0  0  0  0
  -20.3396   31.3513  -43.8585 H   0  0  0  0  0  0
  -22.5804   33.4504  -40.1037 H   0  0  0  0  0  0
  -22.2062   32.3919  -38.7854 H   0  0  0  0  0  0
  -27.2309   31.5450  -42.3498 H   0  0  0  0  0  0
  -28.8874   29.9204  -41.5579 H   0  0  0  0  0  0
  -26.3784   28.9845  -38.1750 H   0  0  0  0  0  0
  -29.5911   28.2447  -40.1439 H   0  0  0  0  0  0
  -27.9841   27.4625  -37.6498 H   0  0  0  0  0  0
  -29.4800   26.3492  -36.1399 H   0  0  0  0  0  0
  -30.4961   24.2898  -36.5930 H   0  0  0  0  0  0
  1  6  1  0  0  0
  1  2  2  0  0  0
  1 25  1  0  0  0
  2  3  1  0  0  0
  2 26  1  0  0  0
  3  4  2  0  0  0
  3 27  1  0  0  0
  4  5  1  0  0  0
  4  7  1  0  0  0
  5  6  2  0  0  0
  5 28  1  0  0  0
  6 29  1  0  0  0
  7  8  1  0  0  0
  7 30  1  0  0  0
  7 31  1  0  0  0
  8 17  1  0  0  0
  8  9  1  0  0  0
  9 10  2  0  0  0
  9 11  1  0  0  0
 11 16  2  0  0  0
 11 12  1  0  0  0
 12 13  2  0  0  0
 12 32  1  0  0  0
 13 14  1  0  0  0
 13 33  1  0  0  0
 14 15  2  0  0  0
 14 19  1  0  0  0
 15 16  1  0  0  0
 15 34  1  0  0  0
 16 17  1  0  0  0
 17 18  2  0  0  0
 19 20  2  0  0  0
 19 35  1  0  0  0
 20 21  1  0  0  0
 20 36  1  0  0  0
 21 22  2  0  0  0
 21 23  1  0  0  0
 23 24  1  0  0  0
 23 37  1  0  0  0
 24 38  1  0  0  0
M  END
> <s_m_entry_id>
53560

> <s_m_entry_name>
ligand_docking-pose.53

> <s_m_Source_Path>
/home/csk/Desktop/cluster/DUD-E-result/hdac8

> <s_m_Source_File>
ligand_docking-pose.sdf

> <i_m_Source_File_Index>
53

> <i_lp_mmshare_version>
53161

> <r_lp_tautomer_probability>
1

> <s_lp_Force_Field>
OPLS_2005

> <r_lp_Energy>
42.148044

> <b_lp_Chiralities_Consistent>
1

> <s_lp_Variant>
329999-1

> <s_i_glide_gridfile>
glide-grid_3f07

> <i_i_glide_lignum>
163

> <i_i_glide_rotatable_bonds>
6

> <r_i_docking_score>
-7.73627371854712

> <r_i_glide_ligand_efficiency>
-0.322344738272797

> <r_i_glide_ligand_efficiency_sa>
-0.929803119544602

> <r_i_glide_ligand_efficiency_ln>
-1.85164529531752

> <r_i_glide_gscore>
-7.73627371854712

> <r_i_glide_lipo>
-0.874353557560144

> <r_i_glide_hbond>
-0.355226686871732

> <r_i_glide_metal>
-2.3

> <r_i_glide_rewards>
-1.52604467200641

> <r_i_glide_evdw>
-32.1239166259766

> <r_i_glide_ecoul>
-11.9340209960938

> <r_i_glide_erotb>
0.899952596650152

> <r_i_glide_esite>
-0.184302418046097

> <r_i_glide_emodel>
-69.0960083937376

> <r_i_glide_energy>
-44.0579376220703

> <r_i_glide_einternal>
2.17021560668945

> <i_i_glide_confnum>
77

> <i_i_glide_posenum>
366

> <r_i_glide_eff_state_penalty>
0

> <i_f3d_flags>
0

> <s_user_duplicate_titles>
329999

> <s_m_subgroup_title>
dock_pv

> <s_m_subgroupid>
dock_pv1

> <b_m_subgroup_collapsed>
0

$$$$
235090
                    3D
 Schrodinger Suite 2021-1.
 46 48  0  0  1  0            999 V2000
  -27.2513   31.0540  -40.7824 C   0  0  0  0  0  0
  -28.2065   30.0759  -40.5228 C   0  0  0  0  0  0
  -27.9870   29.1135  -39.5319 C   0  0  0  0  0  0
  -26.8094   29.1660  -38.7810 C   0  0  0  0  0  0
  -25.8452   30.1334  -39.0529 C   0  0  0  0  0  0
  -26.0517   31.0729  -40.0652 C   0  0  0  0  0  0
  -24.9524   32.1000  -40.3378 C   0  0  0  0  0  0
  -25.0431   32.8061  -41.6185 N   0  0  2  0  0  0
  -23.8436   32.6184  -42.4328 C   0  0  0  0  0  0
  -23.8041   31.2461  -43.1360 C   0  0  0  0  0  0
  -24.7393   31.1670  -44.3295 C   0  0  0  0  0  0
  -26.1051   30.9589  -44.3181 C   0  0  0  0  0  0
  -26.6130   31.0269  -45.5889 N   0  0  0  0  0  0
  -25.5945   31.2596  -46.4837 C   0  0  0  0  0  0
  -24.3884   31.3323  -45.7182 C   0  0  0  0  0  0
  -23.1777   31.5405  -46.3996 C   0  0  0  0  0  0
  -23.1903   31.6690  -47.7861 C   0  0  0  0  0  0
  -24.3825   31.6060  -48.5028 C   0  0  0  0  0  0
  -25.6124   31.4006  -47.8756 C   0  0  0  0  0  0
  -22.0263   31.8570  -48.4462 F   0  0  0  0  0  0
  -29.0170   28.0766  -39.3261 C   0  0  0  0  0  0
  -29.0890   27.1447  -38.3467 C   0  0  0  0  0  0
  -30.1741   26.1869  -38.2685 C   0  0  0  0  0  0
  -31.0002   26.0690  -39.1810 O   0  0  0  0  0  0
  -30.2130   25.4627  -37.1382 N   0  0  0  0  0  0
  -31.1994   24.4690  -37.0164 O   0  0  0  0  0  0
  -27.5977   30.9213  -45.7894 H   0  0  0  0  0  0
  -27.4389   31.7900  -41.5495 H   0  0  0  0  0  0
  -29.1148   30.0691  -41.1083 H   0  0  0  0  0  0
  -26.6138   28.4444  -38.0027 H   0  0  0  0  0  0
  -24.9291   30.1451  -38.4793 H   0  0  0  0  0  0
  -25.0727   32.8690  -39.5810 H   0  0  0  0  0  0
  -23.9712   31.6625  -40.1401 H   0  0  0  0  0  0
  -25.1645   33.7930  -41.4338 H   0  0  0  0  0  0
  -23.8630   33.3909  -43.2033 H   0  0  0  0  0  0
  -22.9337   32.8079  -41.8600 H   0  0  0  0  0  0
  -22.7825   31.0472  -43.4608 H   0  0  0  0  0  0
  -24.0276   30.4690  -42.4088 H   0  0  0  0  0  0
  -26.7724   30.7922  -43.4867 H   0  0  0  0  0  0
  -22.2418   31.5948  -45.8633 H   0  0  0  0  0  0
  -24.3475   31.7196  -49.5764 H   0  0  0  0  0  0
  -26.5303   31.3495  -48.4441 H   0  0  0  0  0  0
  -29.7968   28.0948  -40.0726 H   0  0  0  0  0  0
  -28.3338   27.0946  -37.5810 H   0  0  0  0  0  0
  -29.5713   25.4903  -36.3571 H   0  0  0  0  0  0
  -30.7195   23.6480  -37.1810 H   0  0  0  0  0  0
  1  6  1  0  0  0
  1  2  2  0  0  0
  1 28  1  0  0  0
  2  3  1  0  0  0
  2 29  1  0  0  0
  3  4  2  0  0  0
  3 21  1  0  0  0
  4  5  1  0  0  0
  4 30  1  0  0  0
  5  6  2  0  0  0
  5 31  1  0  0  0
  6  7  1  0  0  0
  7  8  1  0  0  0
  7 32  1  0  0  0
  7 33  1  0  0  0
  8  9  1  0  0  0
  8 34  1  0  0  0
  9 10  1  0  0  0
  9 35  1  0  0  0
  9 36  1  0  0  0
 10 11  1  0  0  0
 10 37  1  0  0  0
 10 38  1  0  0  0
 11 15  1  0  0  0
 11 12  2  0  0  0
 12 13  1  0  0  0
 12 39  1  0  0  0
 13 27  1  0  0  0
 13 14  1  0  0  0
 14 19  1  0  0  0
 14 15  2  0  0  0
 15 16  1  0  0  0
 16 17  2  0  0  0
 16 40  1  0  0  0
 17 18  1  0  0  0
 17 20  1  0  0  0
 18 19  2  0  0  0
 18 41  1  0  0  0
 19 42  1  0  0  0
 21 22  2  0  0  0
 21 43  1  0  0  0
 22 23  1  0  0  0
 22 44  1  0  0  0
 23 24  2  0  0  0
 23 25  1  0  0  0
 25 26  1  0  0  0
 25 45  1  0  0  0
 26 46  1  0  0  0
M  END
> <s_m_entry_id>
53561

> <s_m_entry_name>
ligand_docking-pose.54

> <s_m_Source_Path>
/home/csk/Desktop/cluster/DUD-E-result/hdac8

> <s_m_Source_File>
ligand_docking-pose.sdf

> <i_m_Source_File_Index>
54

> <i_lp_mmshare_version>
53161

> <r_lp_tautomer_probability>
1

> <s_lp_Force_Field>
OPLS_2005

> <r_lp_Energy>
24.526345

> <b_lp_Chiralities_Consistent>
1

> <s_lp_Variant>
235090-1

> <s_i_glide_gridfile>
glide-grid_3f07

> <i_i_glide_lignum>
168

> <i_i_glide_rotatable_bonds>
9

> <r_i_docking_score>
-7.7358834377718

> <r_i_glide_ligand_efficiency>
-0.297533978375839

> <r_i_glide_ligand_efficiency_sa>
-0.88144324019875

> <r_i_glide_ligand_efficiency_ln>
-1.81674684185678

> <r_i_glide_gscore>
-7.7358834377718

> <r_i_glide_lipo>
-1.29566904509735

> <r_i_glide_hbond>
-0.238374570346574

> <r_i_glide_metal>
-2.3

> <r_i_glide_rewards>
-1.26396217324566

> <r_i_glide_evdw>
-35.9162101745605

> <r_i_glide_ecoul>
-12.0829763412476

> <r_i_glide_erotb>
1.07037931083294

> <r_i_glide_esite>
-0.1

> <r_i_glide_emodel>
-71.8940206093952

> <r_i_glide_energy>
-47.9991865158081

> <r_i_glide_einternal>
6.37022733688354

> <i_i_glide_confnum>
24

> <i_i_glide_posenum>
211

> <r_i_glide_eff_state_penalty>
0

> <i_f3d_flags>
0

> <s_user_duplicate_titles>
235090

> <s_m_subgroup_title>
dock_pv

> <s_m_subgroupid>
dock_pv1

> <b_m_subgroup_collapsed>
0

$$$$
473678
                    3D
 Schrodinger Suite 2021-1.
 50 53  0  0  1  0            999 V2000
  -25.4510   30.8693  -45.8798 C   0  0  0  0  0  0
  -26.2047   30.3637  -44.8214 C   0  0  0  0  0  0
  -25.6852   30.3861  -43.5293 C   0  0  0  0  0  0
  -24.4127   30.9156  -43.3026 C   0  0  0  0  0  0
  -23.6522   31.3977  -44.3741 C   0  0  0  0  0  0
  -24.1726   31.3785  -45.6645 C   0  0  0  0  0  0
  -23.8556   30.9751  -41.8815 C   0  0  0  0  0  0
  -24.1524   32.2899  -41.1173 C   0  0  1  0  0  0
  -23.3402   33.4750  -41.7597 C   0  0  0  0  0  0
  -22.1623   33.4052  -42.1057 O   0  0  0  0  0  0
  -24.0329   34.5978  -41.9638 N   0  0  0  0  0  0
  -25.4085   34.7485  -41.8947 C   0  0  0  0  0  0
  -25.9862   35.9150  -42.4000 C   0  0  0  0  0  0
  -27.3652   36.1036  -42.3252 C   0  0  0  0  0  0
  -28.1675   35.1272  -41.7411 C   0  0  0  0  0  0
  -27.5883   33.9606  -41.2373 C   0  0  0  0  0  0
  -26.2049   33.7520  -41.3098 C   0  0  0  0  0  0
  -25.6026   32.5737  -40.8535 N   0  0  0  0  0  0
  -26.0051   31.9833  -39.5640 C   0  0  0  0  0  0
  -26.7883   30.6616  -39.5781 C   0  0  0  0  0  0
  -27.9060   30.4416  -40.3882 C   0  0  0  0  0  0
  -28.7279   29.3320  -40.1673 C   0  0  0  0  0  0
  -28.4412   28.4136  -39.1442 C   0  0  0  0  0  0
  -27.2763   28.6017  -38.3968 C   0  0  0  0  0  0
  -26.4627   29.7101  -38.6121 C   0  0  0  0  0  0
  -29.3891   27.2687  -38.8319 C   0  0  0  0  0  0
  -30.2142   26.8692  -39.6478 O   0  0  0  0  0  0
  -29.4129   26.8149  -37.5800 N   0  0  0  0  0  0
  -30.2204   25.7021  -37.2815 O   0  0  0  0  0  0
  -23.6114   32.2111  -40.1717 H   0  0  0  0  0  0
  -25.8629   30.8593  -46.8786 H   0  0  0  0  0  0
  -27.1948   29.9687  -45.0096 H   0  0  0  0  0  0
  -26.2726   30.0069  -42.7040 H   0  0  0  0  0  0
  -22.6650   31.8068  -44.2074 H   0  0  0  0  0  0
  -23.5929   31.7706  -46.4895 H   0  0  0  0  0  0
  -24.2115   30.1020  -41.3223 H   0  0  0  0  0  0
  -22.7712   30.8679  -41.9305 H   0  0  0  0  0  0
  -23.4779   35.3417  -42.3567 H   0  0  0  0  0  0
  -25.3729   36.6823  -42.8483 H   0  0  0  0  0  0
  -27.8106   37.0087  -42.7122 H   0  0  0  0  0  0
  -29.2355   35.2775  -41.6878 H   0  0  0  0  0  0
  -28.2192   33.2174  -40.7791 H   0  0  0  0  0  0
  -25.1514   31.8724  -38.8966 H   0  0  0  0  0  0
  -26.6056   32.7164  -39.0318 H   0  0  0  0  0  0
  -28.1668   31.1425  -41.1650 H   0  0  0  0  0  0
  -29.6113   29.2181  -40.7803 H   0  0  0  0  0  0
  -27.0139   27.9068  -37.6127 H   0  0  0  0  0  0
  -25.5966   29.8561  -37.9820 H   0  0  0  0  0  0
  -28.8372   27.1201  -36.7991 H   0  0  0  0  0  0
  -29.5919   24.9809  -37.1721 H   0  0  0  0  0  0
  1  6  1  0  0  0
  1  2  2  0  0  0
  1 31  1  0  0  0
  2  3  1  0  0  0
  2 32  1  0  0  0
  3  4  2  0  0  0
  3 33  1  0  0  0
  4  5  1  0  0  0
  4  7  1  0  0  0
  5  6  2  0  0  0
  5 34  1  0  0  0
  6 35  1  0  0  0
  7  8  1  0  0  0
  7 36  1  0  0  0
  7 37  1  0  0  0
  8 30  1  0  0  0
  8 18  1  0  0  0
  8  9  1  0  0  0
  9 10  2  0  0  0
  9 11  1  0  0  0
 11 12  1  0  0  0
 11 38  1  0  0  0
 12 17  2  0  0  0
 12 13  1  0  0  0
 13 14  2  0  0  0
 13 39  1  0  0  0
 14 15  1  0  0  0
 14 40  1  0  0  0
 15 16  2  0  0  0
 15 41  1  0  0  0
 16 17  1  0  0  0
 16 42  1  0  0  0
 17 18  1  0  0  0
 18 19  1  0  0  0
 19 20  1  0  0  0
 19 43  1  0  0  0
 19 44  1  0  0  0
 20 25  1  0  0  0
 20 21  2  0  0  0
 21 22  1  0  0  0
 21 45  1  0  0  0
 22 23  2  0  0  0
 22 46  1  0  0  0
 23 24  1  0  0  0
 23 26  1  0  0  0
 24 25  2  0  0  0
 24 47  1  0  0  0
 25 48  1  0  0  0
 26 27  2  0  0  0
 26 28  1  0  0  0
 28 29  1  0  0  0
 28 49  1  0  0  0
 29 50  1  0  0  0
M  END
> <s_m_entry_id>
53563

> <s_m_entry_name>
ligand_docking-pose.56

> <s_m_Source_Path>
/home/csk/Desktop/cluster/DUD-E-result/hdac8

> <s_m_Source_File>
ligand_docking-pose.sdf

> <i_m_Source_File_Index>
56

> <i_lp_mmshare_version>
53161

> <r_lp_tautomer_probability>
1

> <s_lp_Force_Field>
OPLS_2005

> <r_lp_Energy>
35.402711

> <b_lp_Chiralities_Consistent>
1

> <s_lp_Variant>
473678-1

> <s_i_glide_gridfile>
glide-grid_3f07

> <i_i_glide_lignum>
137

> <i_i_glide_rotatable_bonds>
7

> <r_i_docking_score>
-7.72091499863907

> <r_i_glide_ligand_efficiency>
-0.266238448228934

> <r_i_glide_ligand_efficiency_sa>
-0.817968863220129

> <r_i_glide_ligand_efficiency_ln>
-1.76789374917682

> <r_i_glide_gscore>
-7.72091499863907

> <r_i_glide_lipo>
-1.65721694681166

> <r_i_glide_hbond>
-0.608

> <r_i_glide_metal>
-1.84697198897848

> <r_i_glide_rewards>
-1.02591891990778

> <r_i_glide_evdw>
-25.6766223907471

> <r_i_glide_ecoul>
-12.0534191131592

> <r_i_glide_erotb>
0.77841203019939

> <r_i_glide_esite>
-0.269375186629313

> <r_i_glide_emodel>
-51.2400331616677

> <r_i_glide_energy>
-37.7300415039062

> <r_i_glide_einternal>
5.82597589492798

> <i_i_glide_confnum>
4

> <i_i_glide_posenum>
210

> <r_i_glide_eff_state_penalty>
0

> <i_f3d_flags>
0

> <s_user_duplicate_titles>
473678

> <s_m_subgroup_title>
dock_pv

> <s_m_subgroupid>
dock_pv1

> <b_m_subgroup_collapsed>
0

$$$$
235511
                    3D
 Schrodinger Suite 2021-1.
 49 51  0  0  1  0            999 V2000
  -25.1656   32.9997  -40.9272 C   0  0  0  0  0  0
  -26.0162   32.0382  -41.7719 C   0  0  2  0  0  0
  -26.7732   31.0407  -40.8827 C   0  0  0  0  0  0
  -26.2557   29.7779  -40.5727 C   0  0  0  0  0  0
  -26.9924   28.8923  -39.7933 C   0  0  0  0  0  0
  -28.2239   29.2703  -39.2741 C   0  0  0  0  0  0
  -28.7461   30.5271  -39.5810 C   0  0  0  0  0  0
  -28.0233   31.4078  -40.3810 C   0  0  0  0  0  0
  -29.0130   28.3310  -38.4724 C   0  0  0  0  0  0
  -29.1242   27.0173  -38.7616 C   0  0  0  0  0  0
  -30.0171   26.1028  -38.1001 C   0  0  0  0  0  0
  -30.6131   25.2690  -38.7810 O   0  0  0  0  0  0
  -30.1811   26.2690  -36.7769 N   0  0  0  0  0  0
  -31.0130   25.3723  -36.0974 O   0  0  0  0  0  0
  -25.1353   31.4375  -42.7736 N   0  0  2  0  0  0
  -25.7627   30.4938  -43.6933 C   0  0  0  0  0  0
  -24.7261   29.9333  -44.6819 C   0  0  0  0  0  0
  -24.2815   30.9262  -45.7369 C   0  0  0  0  0  0
  -23.0132   31.4434  -45.9303 C   0  0  0  0  0  0
  -23.0050   32.2915  -47.0075 N   0  0  0  0  0  0
  -24.2673   32.3682  -47.5519 C   0  0  0  0  0  0
  -25.1035   31.5189  -46.7635 C   0  0  0  0  0  0
  -26.4634   31.4143  -47.1070 C   0  0  0  0  0  0
  -26.9486   32.1388  -48.1945 C   0  0  0  0  0  0
  -26.1083   32.9555  -48.9459 C   0  0  0  0  0  0
  -24.7519   33.0916  -48.6474 C   0  0  0  0  0  0
  -22.1719   32.7708  -47.3178 H   0  0  0  0  0  0
  -25.7850   33.5542  -40.2212 H   0  0  0  0  0  0
  -24.4105   32.4703  -40.3438 H   0  0  0  0  0  0
  -24.6532   33.7361  -41.5476 H   0  0  0  0  0  0
  -26.7481   32.6330  -42.3222 H   0  0  0  0  0  0
  -25.2892   29.4751  -40.9454 H   0  0  0  0  0  0
  -26.6130   27.9060  -39.5810 H   0  0  0  0  0  0
  -29.7141   30.8203  -39.2012 H   0  0  0  0  0  0
  -28.4310   32.3785  -40.6161 H   0  0  0  0  0  0
  -29.5379   28.7576  -37.6264 H   0  0  0  0  0  0
  -28.5695   26.5864  -39.5810 H   0  0  0  0  0  0
  -29.6718   26.8975  -36.1643 H   0  0  0  0  0  0
  -30.3986   24.8137  -35.6122 H   0  0  0  0  0  0
  -24.2357   31.1606  -42.4087 H   0  0  0  0  0  0
  -26.2487   29.6688  -43.1740 H   0  0  0  0  0  0
  -26.5403   31.0247  -44.2440 H   0  0  0  0  0  0
  -23.8730   29.5368  -44.1332 H   0  0  0  0  0  0
  -25.1656   29.0724  -45.1807 H   0  0  0  0  0  0
  -22.0948   31.2687  -45.3854 H   0  0  0  0  0  0
  -27.1302   30.7860  -46.5361 H   0  0  0  0  0  0
  -27.9946   32.0690  -48.4603 H   0  0  0  0  0  0
  -26.5216   33.5019  -49.7818 H   0  0  0  0  0  0
  -24.1133   33.7319  -49.2379 H   0  0  0  0  0  0
  1  2  1  0  0  0
  1 28  1  0  0  0
  1 29  1  0  0  0
  1 30  1  0  0  0
  2  3  1  0  0  0
  2 15  1  0  0  0
  2 31  1  0  0  0
  3  8  1  0  0  0
  3  4  2  0  0  0
  4  5  1  0  0  0
  4 32  1  0  0  0
  5  6  2  0  0  0
  5 33  1  0  0  0
  6  7  1  0  0  0
  6  9  1  0  0  0
  7  8  2  0  0  0
  7 34  1  0  0  0
  8 35  1  0  0  0
  9 10  2  0  0  0
  9 36  1  0  0  0
 10 11  1  0  0  0
 10 37  1  0  0  0
 11 12  2  0  0  0
 11 13  1  0  0  0
 13 14  1  0  0  0
 13 38  1  0  0  0
 14 39  1  0  0  0
 15 16  1  0  0  0
 15 40  1  0  0  0
 16 17  1  0  0  0
 16 41  1  0  0  0
 16 42  1  0  0  0
 17 18  1  0  0  0
 17 43  1  0  0  0
 17 44  1  0  0  0
 18 22  1  0  0  0
 18 19  2  0  0  0
 19 20  1  0  0  0
 19 45  1  0  0  0
 20 27  1  0  0  0
 20 21  1  0  0  0
 21 26  1  0  0  0
 21 22  2  0  0  0
 22 23  1  0  0  0
 23 24  2  0  0  0
 23 46  1  0  0  0
 24 25  1  0  0  0
 24 47  1  0  0  0
 25 26  2  0  0  0
 25 48  1  0  0  0
 26 49  1  0  0  0
M  END
> <s_m_entry_id>
53564

> <s_m_entry_name>
ligand_docking-pose.57

> <s_m_Source_Path>
/home/csk/Desktop/cluster/DUD-E-result/hdac8

> <s_m_Source_File>
ligand_docking-pose.sdf

> <i_m_Source_File_Index>
57

> <i_lp_mmshare_version>
53161

> <r_lp_tautomer_probability>
1

> <s_lp_Force_Field>
OPLS_2005

> <r_lp_Energy>
21.120819

> <b_lp_Chiralities_Consistent>
1

> <s_lp_Variant>
235511-1

> <s_i_glide_gridfile>
glide-grid_3f07

> <i_i_glide_lignum>
253

> <i_i_glide_rotatable_bonds>
9

> <r_i_docking_score>
-7.69933501594201

> <r_i_glide_ligand_efficiency>
-0.296128269843923

> <r_i_glide_ligand_efficiency_sa>
-0.877278834204147

> <r_i_glide_ligand_efficiency_ln>
-1.8081635649152

> <r_i_glide_gscore>
-7.69933501594201

> <r_i_glide_lipo>
-1.4099581778892

> <r_i_glide_hbond>
-0.32

> <r_i_glide_metal>
-2.3

> <r_i_glide_rewards>
-1.32711174392725

> <r_i_glide_evdw>
-36.3003196716309

> <r_i_glide_ecoul>
-10.1287899017334

> <r_i_glide_erotb>
1.092069374716

> <r_i_glide_esite>
-0.1

> <r_i_glide_emodel>
-69.4913848964372

> <r_i_glide_energy>
-46.4291095733643

> <r_i_glide_einternal>
5.24782943725586

> <i_i_glide_confnum>
21

> <i_i_glide_posenum>
246

> <r_i_glide_eff_state_penalty>
0

> <i_f3d_flags>
0

> <s_user_duplicate_titles>
235511

> <s_m_subgroup_title>
dock_pv

> <s_m_subgroupid>
dock_pv1

> <b_m_subgroup_collapsed>
0

$$$$
331363
                    3D
 Schrodinger Suite 2021-1.
 36 37  0  0  1  0            999 V2000
  -23.1304   31.1438  -45.3880 C   0  0  0  0  0  0
  -24.3537   30.6575  -44.9344 C   0  0  0  0  0  0
  -24.6671   30.7405  -43.5810 C   0  0  0  0  0  0
  -23.7551   31.3072  -42.6802 C   0  0  0  0  0  0
  -22.5241   31.7773  -43.1459 C   0  0  0  0  0  0
  -22.2130   31.6979  -44.4995 C   0  0  0  0  0  0
  -24.0783   31.4262  -41.1908 C   0  0  0  0  0  0
  -25.5175   31.8109  -40.8927 C   0  0  0  0  0  0
  -25.9867   33.0800  -40.8423 C   0  0  0  0  0  0
  -27.3918   33.3652  -40.5666 C   0  0  0  0  0  0
  -28.2130   32.2340  -40.3810 N   0  0  0  0  0  0
  -27.7264   31.0494  -40.3922 C   0  0  0  0  0  0
  -26.3931   30.7692  -40.6513 N   0  0  0  0  0  0
  -28.8279   29.6489  -40.1442 S   0  0  0  0  0  0
  -27.7187   28.3199  -39.5481 C   0  0  0  0  0  0
  -28.2574   27.4943  -38.3622 C   0  0  0  0  0  0
  -29.5089   26.6314  -38.5841 C   0  0  0  0  0  0
  -30.2130   26.7846  -39.5810 O   0  0  0  0  0  0
  -29.8130   25.7292  -37.6398 N   0  0  0  0  0  0
  -30.8990   24.8690  -37.8665 O   0  0  0  0  0  0
  -27.7518   34.5371  -40.5321 O   0  0  0  0  0  0
  -22.8829   31.0831  -46.4378 H   0  0  0  0  0  0
  -25.0586   30.2243  -45.6288 H   0  0  0  0  0  0
  -25.6220   30.3676  -43.2428 H   0  0  0  0  0  0
  -21.8075   32.2113  -42.4633 H   0  0  0  0  0  0
  -21.2609   32.0602  -44.8599 H   0  0  0  0  0  0
  -23.4430   32.1938  -40.7442 H   0  0  0  0  0  0
  -23.8152   30.4972  -40.6829 H   0  0  0  0  0  0
  -25.3290   33.9193  -41.0039 H   0  0  0  0  0  0
  -26.7795   28.7477  -39.1985 H   0  0  0  0  0  0
  -27.4517   27.6691  -40.3810 H   0  0  0  0  0  0
  -28.5143   28.2044  -37.5810 H   0  0  0  0  0  0
  -27.4533   26.8690  -37.9810 H   0  0  0  0  0  0
  -29.3238   25.5373  -36.7758 H   0  0  0  0  0  0
  -30.4893   23.9934  -37.9301 H   0  0  0  0  0  0
  -26.0688   29.8167  -40.6793 H   0  0  0  0  0  0
  1  6  1  0  0  0
  1  2  2  0  0  0
  1 22  1  0  0  0
  2  3  1  0  0  0
  2 23  1  0  0  0
  3  4  2  0  0  0
  3 24  1  0  0  0
  4  5  1  0  0  0
  4  7  1  0  0  0
  5  6  2  0  0  0
  5 25  1  0  0  0
  6 26  1  0  0  0
  7 27  1  0  0  0
  7 28  1  0  0  0
  7  8  1  0  0  0
  8  9  2  0  0  0
  8 13  1  0  0  0
  9 10  1  0  0  0
  9 29  1  0  0  0
 10 11  1  0  0  0
 10 21  2  0  0  0
 11 12  2  0  0  0
 12 14  1  0  0  0
 12 13  1  0  0  0
 13 36  1  0  0  0
 14 15  1  0  0  0
 15 16  1  0  0  0
 15 30  1  0  0  0
 15 31  1  0  0  0
 16 17  1  0  0  0
 16 32  1  0  0  0
 16 33  1  0  0  0
 17 18  2  0  0  0
 17 19  1  0  0  0
 19 20  1  0  0  0
 19 34  1  0  0  0
 20 35  1  0  0  0
M  END
> <s_m_entry_id>
53566

> <s_m_entry_name>
ligand_docking-pose.59

> <s_m_Source_Path>
/home/csk/Desktop/cluster/DUD-E-result/hdac8

> <s_m_Source_File>
ligand_docking-pose.sdf

> <i_m_Source_File_Index>
59

> <i_lp_mmshare_version>
53161

> <r_lp_tautomer_probability>
0.273662037148395

> <s_lp_Force_Field>
OPLS_2005

> <r_lp_Energy>
30.172773

> <b_lp_Chiralities_Consistent>
1

> <s_lp_Variant>
331363-2

> <s_i_glide_gridfile>
glide-grid_3f07

> <i_i_glide_lignum>
110

> <i_i_glide_rotatable_bonds>
8

> <r_i_docking_score>
-7.66526741351586

> <r_i_glide_ligand_efficiency>
-0.365012733976946

> <r_i_glide_ligand_efficiency_sa>
-1.00704245543398

> <r_i_glide_ligand_efficiency_ln>
-1.89522187886055

> <r_i_glide_gscore>
-7.66526741351586

> <r_i_glide_lipo>
-0.775142163038105

> <r_i_glide_hbond>
-0.307066648811975

> <r_i_glide_metal>
-2.03473797172561

> <r_i_glide_rewards>
-1.41837661526995

> <r_i_glide_evdw>
-28.5112171173096

> <r_i_glide_ecoul>
-19.4710578918457

> <r_i_glide_erotb>
1.38556863252673

> <r_i_glide_esite>
-0.169293107554604

> <r_i_glide_emodel>
-72.3954635108337

> <r_i_glide_energy>
-47.9822750091553

> <r_i_glide_einternal>
6.54558944702148

> <i_i_glide_confnum>
26

> <i_i_glide_posenum>
25

> <r_i_glide_eff_state_penalty>
0

> <i_f3d_flags>
0

> <s_user_duplicate_titles>
331363

> <s_m_subgroup_title>
dock_pv

> <s_m_subgroupid>
dock_pv1

> <b_m_subgroup_collapsed>
0

$$$$
235484
                    3D
 Schrodinger Suite 2021-1.
 55 58  0  0  1  0            999 V2000
  -25.1146   29.9853  -44.0726 C   0  0  0  0  0  0
  -24.1623   30.8641  -43.5670 C   0  0  0  0  0  0
  -24.1441   32.2103  -43.9212 C   0  0  0  0  0  0
  -25.1303   32.6544  -44.8149 C   0  0  0  0  0  0
  -26.0560   31.7585  -45.4032 C   0  0  0  0  0  0
  -26.0637   30.4163  -44.9938 C   0  0  0  0  0  0
  -26.8273   32.4908  -46.3226 C   0  0  0  0  0  0
  -27.8125   32.1245  -47.2478 C   0  0  0  0  0  0
  -28.4537   33.1247  -47.9775 C   0  0  0  0  0  0
  -28.1388   34.4663  -47.7914 C   0  0  0  0  0  0
  -27.1578   34.8679  -46.8858 C   0  0  0  0  0  0
  -26.4932   33.8614  -46.1704 C   0  0  0  0  0  0
  -25.4885   33.9353  -45.2187 N   0  0  0  0  0  0
  -25.0571   35.1686  -44.5639 C   0  0  0  0  0  0
  -25.9746   35.4549  -43.3446 C   0  0  0  0  0  0
  -26.0067   34.2897  -42.3342 C   0  0  0  0  0  0
  -26.7586   34.5906  -41.1313 N   0  0  1  0  0  0
  -26.2763   33.7196  -40.0591 C   0  0  0  0  0  0
  -26.7678   32.2671  -40.0167 C   0  0  0  0  0  0
  -26.0719   31.3415  -39.2291 C   0  0  0  0  0  0
  -26.5553   30.0439  -39.0659 C   0  0  0  0  0  0
  -27.7304   29.6564  -39.7124 C   0  0  0  0  0  0
  -28.3929   30.5575  -40.5508 C   0  0  0  0  0  0
  -27.9216   31.8606  -40.6894 C   0  0  0  0  0  0
  -28.3093   28.3202  -39.5256 C   0  0  0  0  0  0
  -28.9149   27.9254  -38.3866 C   0  0  0  0  0  0
  -29.6307   26.6775  -38.2284 C   0  0  0  0  0  0
  -30.1253   26.0696  -39.1810 O   0  0  0  0  0  0
  -29.8296   26.3267  -36.9480 N   0  0  0  0  0  0
  -30.6361   25.2099  -36.6666 O   0  0  0  0  0  0
  -25.1168   28.9547  -43.7554 H   0  0  0  0  0  0
  -23.4337   30.5075  -42.8551 H   0  0  0  0  0  0
  -23.4267   32.8841  -43.4760 H   0  0  0  0  0  0
  -26.8109   29.7243  -45.3460 H   0  0  0  0  0  0
  -28.0878   31.0903  -47.3848 H   0  0  0  0  0  0
  -29.2289   32.8644  -48.6826 H   0  0  0  0  0  0
  -28.6735   35.2129  -48.3594 H   0  0  0  0  0  0
  -26.9262   35.9151  -46.7569 H   0  0  0  0  0  0
  -25.0794   35.9871  -45.2835 H   0  0  0  0  0  0
  -24.0178   35.0500  -44.2566 H   0  0  0  0  0  0
  -26.9885   35.6679  -43.6880 H   0  0  0  0  0  0
  -25.6187   36.3603  -42.8528 H   0  0  0  0  0  0
  -24.9711   34.0457  -42.0901 H   0  0  0  0  0  0
  -26.4552   33.3999  -42.7765 H   0  0  0  0  0  0
  -26.6187   35.5567  -40.8681 H   0  0  0  0  0  0
  -26.6744   34.1819  -39.1606 H   0  0  0  0  0  0
  -25.1896   33.7684  -39.9704 H   0  0  0  0  0  0
  -25.1765   31.6465  -38.7032 H   0  0  0  0  0  0
  -26.0259   29.3543  -38.4240 H   0  0  0  0  0  0
  -29.3005   30.2677  -41.0590 H   0  0  0  0  0  0
  -28.4789   32.5794  -41.2623 H   0  0  0  0  0  0
  -28.2330   27.6679  -40.3758 H   0  0  0  0  0  0
  -28.9201   28.5884  -37.5406 H   0  0  0  0  0  0
  -29.4594   26.7852  -36.1225 H   0  0  0  0  0  0
  -31.4208   25.5881  -36.2603 H   0  0  0  0  0  0
  1  6  1  0  0  0
  1  2  2  0  0  0
  1 31  1  0  0  0
  2  3  1  0  0  0
  2 32  1  0  0  0
  3  4  2  0  0  0
  3 33  1  0  0  0
  4 13  1  0  0  0
  4  5  1  0  0  0
  5  6  2  0  0  0
  5  7  1  0  0  0
  6 34  1  0  0  0
  7 12  2  0  0  0
  7  8  1  0  0  0
  8  9  2  0  0  0
  8 35  1  0  0  0
  9 10  1  0  0  0
  9 36  1  0  0  0
 10 11  2  0  0  0
 10 37  1  0  0  0
 11 12  1  0  0  0
 11 38  1  0  0  0
 12 13  1  0  0  0
 13 14  1  0  0  0
 14 15  1  0  0  0
 14 39  1  0  0  0
 14 40  1  0  0  0
 15 16  1  0  0  0
 15 41  1  0  0  0
 15 42  1  0  0  0
 16 17  1  0  0  0
 16 43  1  0  0  0
 16 44  1  0  0  0
 17 18  1  0  0  0
 17 45  1  0  0  0
 18 19  1  0  0  0
 18 46  1  0  0  0
 18 47  1  0  0  0
 19 24  1  0  0  0
 19 20  2  0  0  0
 20 21  1  0  0  0
 20 48  1  0  0  0
 21 22  2  0  0  0
 21 49  1  0  0  0
 22 23  1  0  0  0
 22 25  1  0  0  0
 23 24  2  0  0  0
 23 50  1  0  0  0
 24 51  1  0  0  0
 25 26  2  0  0  0
 25 52  1  0  0  0
 26 27  1  0  0  0
 26 53  1  0  0  0
 27 28  2  0  0  0
 27 29  1  0  0  0
 29 30  1  0  0  0
 29 54  1  0  0  0
 30 55  1  0  0  0
M  END
> <s_m_entry_id>
53567

> <s_m_entry_name>
ligand_docking-pose.60

> <s_m_Source_Path>
/home/csk/Desktop/cluster/DUD-E-result/hdac8

> <s_m_Source_File>
ligand_docking-pose.sdf

> <i_m_Source_File_Index>
60

> <i_lp_mmshare_version>
53161

> <r_lp_tautomer_probability>
1

> <s_lp_Force_Field>
OPLS_2005

> <r_lp_Energy>
32.750325

> <b_lp_Chiralities_Consistent>
1

> <s_lp_Variant>
235484-1

> <s_i_glide_gridfile>
glide-grid_3f07

> <i_i_glide_lignum>
10

> <i_i_glide_rotatable_bonds>
10

> <r_i_docking_score>
-7.65544642069475

> <r_i_glide_ligand_efficiency>
-0.255181547356492

> <r_i_glide_ligand_efficiency_sa>
-0.792908397966749

> <r_i_glide_ligand_efficiency_ln>
-1.73940083955144

> <r_i_glide_gscore>
-7.65544642069475

> <r_i_glide_lipo>
-1.58394943480262

> <r_i_glide_hbond>
-0.383775245098043

> <r_i_glide_metal>
-2.3

> <r_i_glide_rewards>
-0.993663559439203

> <r_i_glide_evdw>
-28.3723754882812

> <r_i_glide_ecoul>
-12.2081232070923

> <r_i_glide_erotb>
0.982275562514027

> <r_i_glide_esite>
-0.126496488391006

> <r_i_glide_emodel>
-52.4442958636698

> <r_i_glide_energy>
-40.5804986953735

> <r_i_glide_einternal>
9.32932090759277

> <i_i_glide_confnum>
12

> <i_i_glide_posenum>
110

> <r_i_glide_eff_state_penalty>
0

> <i_f3d_flags>
0

> <s_user_duplicate_titles>
235484

> <s_m_subgroup_title>
dock_pv

> <s_m_subgroupid>
dock_pv1

> <b_m_subgroup_collapsed>
0

$$$$
318226
                    3D
 Schrodinger Suite 2021-1.
 31 32  0  0  1  0            999 V2000
  -23.4548   35.5482  -41.3011 C   0  0  0  0  0  0
  -23.1648   34.1922  -41.1831 C   0  0  0  0  0  0
  -24.1909   33.2838  -40.9381 C   0  0  0  0  0  0
  -25.5177   33.7280  -40.7993 C   0  0  0  0  0  0
  -25.7913   35.0975  -40.9338 C   0  0  0  0  0  0
  -24.7641   36.0040  -41.1814 C   0  0  0  0  0  0
  -26.6491   32.7645  -40.5148 C   0  0  0  0  0  0
  -27.8130   33.0813  -40.7810 O   0  0  0  0  0  0
  -26.2971   31.5928  -39.9364 N   0  0  0  0  0  0
  -27.1018   30.4692  -39.6686 C   0  0  0  0  0  0
  -26.6344   29.5544  -38.7243 C   0  0  0  0  0  0
  -27.3860   28.4199  -38.4065 C   0  0  0  0  0  0
  -28.5980   28.1635  -39.0520 C   0  0  0  0  0  0
  -29.0431   29.0801  -40.0081 C   0  0  0  0  0  0
  -28.3106   30.2152  -40.3239 C   0  0  0  0  0  0
  -29.4275   26.9344  -38.7450 C   0  0  0  0  0  0
  -30.2130   26.4740  -39.5810 O   0  0  0  0  0  0
  -29.4130   26.4690  -37.4942 N   0  0  0  0  0  0
  -30.2130   25.3470  -37.1928 O   0  0  0  0  0  0
  -22.6565   36.2523  -41.4835 H   0  0  0  0  0  0
  -22.1456   33.8466  -41.2740 H   0  0  0  0  0  0
  -23.9330   32.2384  -40.8528 H   0  0  0  0  0  0
  -26.7995   35.4733  -40.8315 H   0  0  0  0  0  0
  -24.9816   37.0582  -41.2706 H   0  0  0  0  0  0
  -25.3468   31.5413  -39.6025 H   0  0  0  0  0  0
  -25.6915   29.7223  -38.2240 H   0  0  0  0  0  0
  -27.0130   27.7290  -37.6658 H   0  0  0  0  0  0
  -29.9715   28.9210  -40.5358 H   0  0  0  0  0  0
  -28.6913   30.8690  -41.0927 H   0  0  0  0  0  0
  -28.8829   26.8195  -36.7004 H   0  0  0  0  0  0
  -29.5884   24.6118  -37.1794 H   0  0  0  0  0  0
  1  6  1  0  0  0
  1  2  2  0  0  0
  1 20  1  0  0  0
  2  3  1  0  0  0
  2 21  1  0  0  0
  3  4  2  0  0  0
  3 22  1  0  0  0
  4  5  1  0  0  0
  4  7  1  0  0  0
  5  6  2  0  0  0
  5 23  1  0  0  0
  6 24  1  0  0  0
  7  8  2  0  0  0
  7  9  1  0  0  0
  9 10  1  0  0  0
  9 25  1  0  0  0
 10 15  1  0  0  0
 10 11  2  0  0  0
 11 12  1  0  0  0
 11 26  1  0  0  0
 12 13  2  0  0  0
 12 27  1  0  0  0
 13 14  1  0  0  0
 13 16  1  0  0  0
 14 15  2  0  0  0
 14 28  1  0  0  0
 15 29  1  0  0  0
 16 17  2  0  0  0
 16 18  1  0  0  0
 18 19  1  0  0  0
 18 30  1  0  0  0
 19 31  1  0  0  0
M  END
> <s_m_entry_id>
53568

> <s_m_entry_name>
ligand_docking-pose.61

> <s_m_Source_Path>
/home/csk/Desktop/cluster/DUD-E-result/hdac8

> <s_m_Source_File>
ligand_docking-pose.sdf

> <i_m_Source_File_Index>
61

> <i_lp_mmshare_version>
53161

> <r_lp_tautomer_probability>
1

> <s_lp_Force_Field>
OPLS_2005

> <r_lp_Energy>
30.041181

> <b_lp_Chiralities_Consistent>
1

> <s_lp_Variant>
318226-1

> <s_i_glide_gridfile>
glide-grid_3f07

> <i_i_glide_lignum>
173

> <i_i_glide_rotatable_bonds>
6

> <r_i_docking_score>
-7.65138506547277

> <r_i_glide_ligand_efficiency>
-0.402704477130146

> <r_i_glide_ligand_efficiency_sa>
-1.07457728966711

> <r_i_glide_ligand_efficiency_ln>
-1.93979045078033

> <r_i_glide_gscore>
-7.65138506547277

> <r_i_glide_lipo>
-0.870144201618594

> <r_i_glide_hbond>
-0.605440450170516

> <r_i_glide_metal>
-2.3

> <r_i_glide_rewards>
-1.87262867249955

> <r_i_glide_evdw>
-16.7004451751709

> <r_i_glide_ecoul>
-14.7506113052368

> <r_i_glide_erotb>
1.34183117323479

> <r_i_glide_esite>
-0.297388959874838

> <r_i_glide_emodel>
-48.9275278267759

> <r_i_glide_energy>
-31.4510564804077

> <r_i_glide_einternal>
3.87680339813232

> <i_i_glide_confnum>
7

> <i_i_glide_posenum>
205

> <r_i_glide_eff_state_penalty>
0

> <i_f3d_flags>
0

> <s_user_duplicate_titles>
318226

> <s_m_subgroup_title>
dock_pv

> <s_m_subgroupid>
dock_pv1

> <b_m_subgroup_collapsed>
0

$$$$
234796
                    3D
 Schrodinger Suite 2021-1.
 48 49  0  0  1  0            999 V2000
  -22.9686   31.4873  -47.0767 C   0  0  0  0  0  0
  -23.9054   30.8690  -46.2031 O   0  0  0  0  0  0
  -25.0698   31.5822  -46.0299 C   0  0  0  0  0  0
  -26.1659   31.2690  -46.8373 C   0  0  0  0  0  0
  -27.3746   31.9423  -46.6812 C   0  0  0  0  0  0
  -27.4977   32.9287  -45.7055 C   0  0  0  0  0  0
  -26.4101   33.2466  -44.8910 C   0  0  0  0  0  0
  -25.1831   32.5827  -45.0462 C   0  0  0  0  0  0
  -24.0558   32.8758  -44.2559 N   0  0  0  0  0  0
  -24.0258   33.8898  -43.2001 C   0  0  0  0  0  0
  -24.4138   33.3652  -41.8042 C   0  0  0  0  0  0
  -23.5050   32.2983  -41.3959 N   0  0  1  0  0  0
  -23.8150   31.7231  -40.0893 C   0  0  0  0  0  0
  -25.0939   30.8844  -39.9917 C   0  0  0  0  0  0
  -25.5318   30.5092  -38.7210 C   0  0  0  0  0  0
  -26.6481   29.6902  -38.5702 C   0  0  0  0  0  0
  -27.3551   29.2527  -39.6902 C   0  0  0  0  0  0
  -26.9466   29.6690  -40.9598 C   0  0  0  0  0  0
  -25.8136   30.4609  -41.1153 C   0  0  0  0  0  0
  -28.4913   28.3203  -39.5810 C   0  0  0  0  0  0
  -28.6776   27.3824  -38.6213 C   0  0  0  0  0  0
  -29.8130   26.4863  -38.6363 C   0  0  0  0  0  0
  -30.6130   26.4690  -39.5810 O   0  0  0  0  0  0
  -29.9456   25.7113  -37.5496 N   0  0  0  0  0  0
  -30.9999   24.7826  -37.5160 O   0  0  0  0  0  0
  -22.0743   30.8690  -47.1504 H   0  0  0  0  0  0
  -23.3775   31.5996  -48.0822 H   0  0  0  0  0  0
  -22.6612   32.4699  -46.7153 H   0  0  0  0  0  0
  -26.0766   30.4985  -47.5884 H   0  0  0  0  0  0
  -28.2130   31.6955  -47.3161 H   0  0  0  0  0  0
  -28.4369   33.4477  -45.5811 H   0  0  0  0  0  0
  -26.5411   34.0112  -44.1416 H   0  0  0  0  0  0
  -23.2932   32.2140  -44.2891 H   0  0  0  0  0  0
  -24.6602   34.7355  -43.4637 H   0  0  0  0  0  0
  -23.0178   34.3058  -43.1703 H   0  0  0  0  0  0
  -25.4490   33.0243  -41.8178 H   0  0  0  0  0  0
  -24.3501   34.1825  -41.0835 H   0  0  0  0  0  0
  -23.4093   31.5896  -42.1075 H   0  0  0  0  0  0
  -23.7602   32.4690  -39.2947 H   0  0  0  0  0  0
  -23.0009   31.0265  -39.8847 H   0  0  0  0  0  0
  -24.9905   30.8410  -37.8467 H   0  0  0  0  0  0
  -26.9645   29.3959  -37.5810 H   0  0  0  0  0  0
  -27.4827   29.3487  -41.8398 H   0  0  0  0  0  0
  -25.5000   30.7302  -42.1128 H   0  0  0  0  0  0
  -29.2268   28.4385  -40.3649 H   0  0  0  0  0  0
  -27.9684   27.2690  -37.8140 H   0  0  0  0  0  0
  -29.3448   25.6641  -36.7380 H   0  0  0  0  0  0
  -30.5528   23.9274  -37.5810 H   0  0  0  0  0  0
  1  2  1  0  0  0
  1 26  1  0  0  0
  1 27  1  0  0  0
  1 28  1  0  0  0
  2  3  1  0  0  0
  3  8  1  0  0  0
  3  4  2  0  0  0
  4  5  1  0  0  0
  4 29  1  0  0  0
  5  6  2  0  0  0
  5 30  1  0  0  0
  6  7  1  0  0  0
  6 31  1  0  0  0
  7  8  2  0  0  0
  7 32  1  0  0  0
  8  9  1  0  0  0
  9 10  1  0  0  0
  9 33  1  0  0  0
 10 11  1  0  0  0
 10 34  1  0  0  0
 10 35  1  0  0  0
 11 12  1  0  0  0
 11 36  1  0  0  0
 11 37  1  0  0  0
 12 13  1  0  0  0
 12 38  1  0  0  0
 13 14  1  0  0  0
 13 39  1  0  0  0
 13 40  1  0  0  0
 14 19  1  0  0  0
 14 15  2  0  0  0
 15 16  1  0  0  0
 15 41  1  0  0  0
 16 17  2  0  0  0
 16 42  1  0  0  0
 17 18  1  0  0  0
 17 20  1  0  0  0
 18 19  2  0  0  0
 18 43  1  0  0  0
 19 44  1  0  0  0
 20 21  2  0  0  0
 20 45  1  0  0  0
 21 22  1  0  0  0
 21 46  1  0  0  0
 22 23  2  0  0  0
 22 24  1  0  0  0
 24 25  1  0  0  0
 24 47  1  0  0  0
 25 48  1  0  0  0
M  END
> <s_m_entry_id>
53569

> <s_m_entry_name>
ligand_docking-pose.62

> <s_m_Source_Path>
/home/csk/Desktop/cluster/DUD-E-result/hdac8

> <s_m_Source_File>
ligand_docking-pose.sdf

> <i_m_Source_File_Index>
62

> <i_lp_mmshare_version>
53161

> <r_lp_tautomer_probability>
1

> <s_lp_Force_Field>
OPLS_2005

> <r_lp_Energy>
24.460788

> <b_lp_Chiralities_Consistent>
1

> <s_lp_Variant>
234796-1

> <s_i_glide_gridfile>
glide-grid_3f07

> <i_i_glide_lignum>
369

> <i_i_glide_rotatable_bonds>
11

> <r_i_docking_score>
-7.60694227436217

> <r_i_glide_ligand_efficiency>
-0.304277690974487

> <r_i_glide_ligand_efficiency_sa>
-0.889713364797227

> <r_i_glide_ligand_efficiency_ln>
-1.80307328068842

> <r_i_glide_gscore>
-7.60694227436217

> <r_i_glide_lipo>
-1.5373964893892

> <r_i_glide_hbond>
-0.307355914024259

> <r_i_glide_metal>
-2.3

> <r_i_glide_rewards>
-1.27064418758861

> <r_i_glide_evdw>
-28.7032337188721

> <r_i_glide_ecoul>
-13.8326988220215

> <r_i_glide_erotb>
1.46319843489959

> <r_i_glide_esite>
-0.144677609012864

> <r_i_glide_emodel>
-63.8335836045903

> <r_i_glide_energy>
-42.5359325408936

> <r_i_glide_einternal>
8.56242084503174

> <i_i_glide_confnum>
49

> <i_i_glide_posenum>
257

> <r_i_glide_eff_state_penalty>
0

> <i_f3d_flags>
0

> <s_user_duplicate_titles>
234796

> <s_m_subgroup_title>
dock_pv

> <s_m_subgroupid>
dock_pv1

> <b_m_subgroup_collapsed>
0

$$$$
87103
                    3D
 Schrodinger Suite 2021-1.
 49 50  0  0  1  0            999 V2000
  -23.8787   31.2894  -46.8377 C   0  0  0  0  0  0
  -25.3587   31.1453  -46.4269 C   0  0  2  0  0  0
  -26.3279   31.8371  -47.3740 C   0  0  0  0  0  0
  -26.4307   31.7335  -48.7648 C   0  0  0  0  0  0
  -27.4118   32.4558  -49.4492 C   0  0  0  0  0  0
  -28.3005   33.2692  -48.7454 C   0  0  0  0  0  0
  -28.2128   33.3613  -47.3568 C   0  0  0  0  0  0
  -27.2173   32.6597  -46.6755 C   0  0  0  0  0  0
  -26.9744   32.5842  -45.1898 C   0  0  0  0  0  0
  -25.6518   31.8015  -45.0543 C   0  0  1  0  0  0
  -25.7405   30.8132  -43.8661 C   0  0  0  0  0  0
  -26.2129   29.6814  -43.9974 O   0  0  0  0  0  0
  -25.3512   31.3070  -42.6808 N   0  0  0  0  0  0
  -25.6189   30.6907  -41.3879 C   0  0  0  0  0  0
  -27.0602   30.9864  -40.9243 C   0  0  0  0  0  0
  -27.3076   30.7566  -39.4260 C   0  0  0  0  0  0
  -27.2562   29.2887  -38.9683 C   0  0  0  0  0  0
  -28.5355   28.4979  -39.2987 C   0  0  0  0  0  0
  -28.4657   27.0379  -38.8009 C   0  0  0  0  0  0
  -29.8123   26.4687  -38.3367 C   0  0  0  0  0  0
  -30.6154   26.0692  -39.1810 O   0  0  0  0  0  0
  -30.0503   26.4613  -37.0163 N   0  0  0  0  0  0
  -31.2511   25.9016  -36.5595 O   0  0  0  0  0  0
  -23.6737   30.7881  -47.7835 H   0  0  0  0  0  0
  -23.6008   32.3371  -46.9593 H   0  0  0  0  0  0
  -23.2138   30.8643  -46.0853 H   0  0  0  0  0  0
  -25.6002   30.0820  -46.4085 H   0  0  0  0  0  0
  -25.7570   31.0994  -49.3204 H   0  0  0  0  0  0
  -27.4959   32.3720  -50.5234 H   0  0  0  0  0  0
  -29.0721   33.8120  -49.2717 H   0  0  0  0  0  0
  -28.9233   33.9753  -46.8228 H   0  0  0  0  0  0
  -27.8137   32.0722  -44.7159 H   0  0  0  0  0  0
  -26.8864   33.5711  -44.7349 H   0  0  0  0  0  0
  -24.8630   32.5189  -44.8147 H   0  0  0  0  0  0
  -24.9224   32.2201  -42.6587 H   0  0  0  0  0  0
  -24.9133   31.1166  -40.6726 H   0  0  0  0  0  0
  -25.4120   29.6188  -41.3859 H   0  0  0  0  0  0
  -27.7635   30.4004  -41.5178 H   0  0  0  0  0  0
  -27.2945   32.0299  -41.1422 H   0  0  0  0  0  0
  -28.2833   31.1764  -39.1812 H   0  0  0  0  0  0
  -26.5818   31.3359  -38.8525 H   0  0  0  0  0  0
  -27.1090   29.2742  -37.8873 H   0  0  0  0  0  0
  -26.3816   28.7900  -39.3866 H   0  0  0  0  0  0
  -28.7165   28.5087  -40.3753 H   0  0  0  0  0  0
  -29.3770   29.0252  -38.8452 H   0  0  0  0  0  0
  -27.7551   26.9658  -37.9809 H   0  0  0  0  0  0
  -28.0413   26.4046  -39.5797 H   0  0  0  0  0  0
  -29.4432   26.7912  -36.2726 H   0  0  0  0  0  0
  -30.9771   25.0757  -36.1495 H   0  0  0  0  0  0
  1  2  1  0  0  0
  1 24  1  0  0  0
  1 25  1  0  0  0
  1 26  1  0  0  0
  2 10  1  0  0  0
  2  3  1  0  0  0
  2 27  1  0  0  0
  3  8  2  0  0  0
  3  4  1  0  0  0
  4  5  2  0  0  0
  4 28  1  0  0  0
  5  6  1  0  0  0
  5 29  1  0  0  0
  6  7  2  0  0  0
  6 30  1  0  0  0
  7  8  1  0  0  0
  7 31  1  0  0  0
  8  9  1  0  0  0
  9 10  1  0  0  0
  9 32  1  0  0  0
  9 33  1  0  0  0
 10 11  1  0  0  0
 10 34  1  0  0  0
 11 12  2  0  0  0
 11 13  1  0  0  0
 13 14  1  0  0  0
 13 35  1  0  0  0
 14 15  1  0  0  0
 14 36  1  0  0  0
 14 37  1  0  0  0
 15 16  1  0  0  0
 15 38  1  0  0  0
 15 39  1  0  0  0
 16 17  1  0  0  0
 16 40  1  0  0  0
 16 41  1  0  0  0
 17 18  1  0  0  0
 17 42  1  0  0  0
 17 43  1  0  0  0
 18 19  1  0  0  0
 18 44  1  0  0  0
 18 45  1  0  0  0
 19 20  1  0  0  0
 19 46  1  0  0  0
 19 47  1  0  0  0
 20 21  2  0  0  0
 20 22  1  0  0  0
 22 23  1  0  0  0
 22 48  1  0  0  0
 23 49  1  0  0  0
M  END
> <s_m_entry_id>
53572

> <s_m_entry_name>
ligand_docking-pose.65

> <s_m_Source_Path>
/home/csk/Desktop/cluster/DUD-E-result/hdac8

> <s_m_Source_File>
ligand_docking-pose.sdf

> <i_m_Source_File_Index>
65

> <i_lp_mmshare_version>
53161

> <r_lp_tautomer_probability>
1

> <s_lp_Force_Field>
OPLS_2005

> <r_lp_Energy>
23.450548

> <b_lp_Chiralities_Consistent>
1

> <s_lp_Variant>
87103-1

> <s_i_glide_gridfile>
glide-grid_3f07

> <i_i_glide_lignum>
221

> <i_i_glide_rotatable_bonds>
11

> <r_i_docking_score>
-7.60281293412207

> <r_i_glide_ligand_efficiency>
-0.330557084092264

> <r_i_glide_ligand_efficiency_sa>
-0.940060375423488

> <r_i_glide_ligand_efficiency_ln>
-1.83842910596694

> <r_i_glide_gscore>
-7.60281293412207

> <r_i_glide_lipo>
-1.23054707199002

> <r_i_glide_hbond>
-0.684428053812344

> <r_i_glide_metal>
-2.3

> <r_i_glide_rewards>
-1.39055153166541

> <r_i_glide_evdw>
-30.9676399230957

> <r_i_glide_ecoul>
-14.3378190994263

> <r_i_glide_erotb>
1.83897486245722

> <r_i_glide_esite>
-0.137206278042796

> <r_i_glide_emodel>
-66.586604272693

> <r_i_glide_energy>
-45.305459022522

> <r_i_glide_einternal>
7.79206323623657

> <i_i_glide_confnum>
178

> <i_i_glide_posenum>
131

> <r_i_glide_eff_state_penalty>
0

> <i_f3d_flags>
0

> <s_user_duplicate_titles>
87103

> <s_m_subgroup_title>
dock_pv

> <s_m_subgroupid>
dock_pv1

> <b_m_subgroup_collapsed>
0

$$$$
235089
                    3D
 Schrodinger Suite 2021-1.
 49 51  0  0  1  0            999 V2000
  -25.4797   33.4360  -42.9875 C   0  0  0  0  0  0
  -25.0833   31.9593  -42.7634 C   0  0  1  0  0  0
  -24.2318   31.3933  -43.9254 C   0  0  0  0  0  0
  -24.9626   31.3265  -45.2621 C   0  0  0  0  0  0
  -26.3281   31.2810  -45.5052 C   0  0  0  0  0  0
  -26.5794   31.2690  -46.8530 N   0  0  0  0  0  0
  -25.3900   31.2749  -47.5443 C   0  0  0  0  0  0
  -24.3465   31.2850  -46.5650 C   0  0  0  0  0  0
  -23.0137   31.2690  -47.0109 C   0  0  0  0  0  0
  -22.7544   31.2475  -48.3805 C   0  0  0  0  0  0
  -23.7913   31.2531  -49.3099 C   0  0  0  0  0  0
  -25.1311   31.2690  -48.9195 C   0  0  0  0  0  0
  -24.3185   31.8302  -41.5207 N   0  0  1  0  0  0
  -25.0079   32.1259  -40.2594 C   0  0  0  0  0  0
  -26.0927   31.1035  -39.9351 C   0  0  0  0  0  0
  -27.3512   31.1987  -40.5323 C   0  0  0  0  0  0
  -28.3051   30.2130  -40.3059 C   0  0  0  0  0  0
  -28.0249   29.1445  -39.4495 C   0  0  0  0  0  0
  -26.7994   29.1033  -38.7816 C   0  0  0  0  0  0
  -25.8294   30.0692  -39.0345 C   0  0  0  0  0  0
  -29.0435   28.0948  -39.2874 C   0  0  0  0  0  0
  -29.1029   27.1353  -38.3368 C   0  0  0  0  0  0
  -30.1829   26.1749  -38.2705 C   0  0  0  0  0  0
  -31.0130   26.0690  -39.1810 O   0  0  0  0  0  0
  -30.2130   25.4436  -37.1454 N   0  0  0  0  0  0
  -31.2146   24.4690  -37.0129 O   0  0  0  0  0  0
  -27.5135   31.2612  -47.2394 H   0  0  0  0  0  0
  -25.9965   33.5755  -43.9361 H   0  0  0  0  0  0
  -26.1499   33.8036  -42.2116 H   0  0  0  0  0  0
  -24.6017   34.0831  -43.0004 H   0  0  0  0  0  0
  -25.9743   31.3375  -42.6945 H   0  0  0  0  0  0
  -23.3357   32.0082  -44.0279 H   0  0  0  0  0  0
  -23.8770   30.3938  -43.6717 H   0  0  0  0  0  0
  -27.1593   31.2818  -44.8139 H   0  0  0  0  0  0
  -22.1962   31.2723  -46.3040 H   0  0  0  0  0  0
  -21.7304   31.2350  -48.7270 H   0  0  0  0  0  0
  -23.5477   31.2503  -50.3627 H   0  0  0  0  0  0
  -25.9270   31.2741  -49.6500 H   0  0  0  0  0  0
  -23.7959   30.9687  -41.4636 H   0  0  0  0  0  0
  -25.3940   33.1453  -40.2406 H   0  0  0  0  0  0
  -24.2407   32.0667  -39.4854 H   0  0  0  0  0  0
  -27.5734   32.0125  -41.2061 H   0  0  0  0  0  0
  -29.2556   30.2779  -40.8160 H   0  0  0  0  0  0
  -26.5739   28.3006  -38.0974 H   0  0  0  0  0  0
  -24.8670   29.9980  -38.5476 H   0  0  0  0  0  0
  -29.8130   28.1283  -40.0416 H   0  0  0  0  0  0
  -28.3407   27.0707  -37.5810 H   0  0  0  0  0  0
  -29.5679   25.4667  -36.3671 H   0  0  0  0  0  0
  -30.7503   23.6398  -37.1810 H   0  0  0  0  0  0
  1  2  1  0  0  0
  1 28  1  0  0  0
  1 29  1  0  0  0
  1 30  1  0  0  0
  2  3  1  0  0  0
  2 13  1  0  0  0
  2 31  1  0  0  0
  3  4  1  0  0  0
  3 32  1  0  0  0
  3 33  1  0  0  0
  4  8  1  0  0  0
  4  5  2  0  0  0
  5  6  1  0  0  0
  5 34  1  0  0  0
  6 27  1  0  0  0
  6  7  1  0  0  0
  7 12  1  0  0  0
  7  8  2  0  0  0
  8  9  1  0  0  0
  9 10  2  0  0  0
  9 35  1  0  0  0
 10 11  1  0  0  0
 10 36  1  0  0  0
 11 12  2  0  0  0
 11 37  1  0  0  0
 12 38  1  0  0  0
 13 14  1  0  0  0
 13 39  1  0  0  0
 14 15  1  0  0  0
 14 40  1  0  0  0
 14 41  1  0  0  0
 15 20  1  0  0  0
 15 16  2  0  0  0
 16 17  1  0  0  0
 16 42  1  0  0  0
 17 18  2  0  0  0
 17 43  1  0  0  0
 18 19  1  0  0  0
 18 21  1  0  0  0
 19 20  2  0  0  0
 19 44  1  0  0  0
 20 45  1  0  0  0
 21 22  2  0  0  0
 21 46  1  0  0  0
 22 23  1  0  0  0
 22 47  1  0  0  0
 23 24  2  0  0  0
 23 25  1  0  0  0
 25 26  1  0  0  0
 25 48  1  0  0  0
 26 49  1  0  0  0
M  END
> <s_m_entry_id>
53573

> <s_m_entry_name>
ligand_docking-pose.66

> <s_m_Source_Path>
/home/csk/Desktop/cluster/DUD-E-result/hdac8

> <s_m_Source_File>
ligand_docking-pose.sdf

> <i_m_Source_File_Index>
66

> <i_lp_mmshare_version>
53161

> <r_lp_tautomer_probability>
1

> <s_lp_Force_Field>
OPLS_2005

> <r_lp_Energy>
27.844003

> <b_lp_Chiralities_Consistent>
1

> <s_lp_Variant>
235089-2

> <s_i_glide_gridfile>
glide-grid_3f07

> <i_i_glide_lignum>
269

> <i_i_glide_rotatable_bonds>
9

> <r_i_docking_score>
-7.60030160442694

> <r_i_glide_ligand_efficiency>
-0.292319292477959

> <r_i_glide_ligand_efficiency_sa>
-0.86599475374508

> <r_i_glide_ligand_efficiency_ln>
-1.78490589317602

> <r_i_glide_gscore>
-7.60030160442694

> <r_i_glide_lipo>
-1.20243015293017

> <r_i_glide_hbond>
-0.237508811182326

> <r_i_glide_metal>
-2.3

> <r_i_glide_rewards>
-1.28223643550163

> <r_i_glide_evdw>
-36.4513320922852

> <r_i_glide_ecoul>
-11.6508598327637

> <r_i_glide_erotb>
1.092069374716

> <r_i_glide_esite>
-0.1

> <r_i_glide_emodel>
-72.4825839296474

> <r_i_glide_energy>
-48.1021919250488

> <r_i_glide_einternal>
4.48801755905151

> <i_i_glide_confnum>
12

> <i_i_glide_posenum>
70

> <r_i_glide_eff_state_penalty>
0

> <i_f3d_flags>
0

> <s_user_duplicate_titles>
235089

> <s_m_subgroup_title>
dock_pv

> <s_m_subgroupid>
dock_pv1

> <b_m_subgroup_collapsed>
0

$$$$
86139
                    3D
 Schrodinger Suite 2021-1.
 43 44  0  0  1  0            999 V2000
  -22.6376   31.7527  -45.2341 C   0  0  0  0  0  0
  -23.2895   31.9076  -46.4537 C   0  0  0  0  0  0
  -24.6565   31.6108  -46.5346 C   0  0  0  0  0  0
  -25.6249   31.6691  -47.5907 C   0  0  0  0  0  0
  -26.8323   31.2692  -47.0598 C   0  0  0  0  0  0
  -26.6496   30.9431  -45.7396 N   0  0  0  0  0  0
  -25.3341   31.1422  -45.3641 C   0  0  0  0  0  0
  -24.6814   30.9751  -44.1279 C   0  0  0  0  0  0
  -23.3146   31.3011  -44.1058 C   0  0  0  0  0  0
  -25.4006   30.4739  -42.8990 C   0  0  0  0  0  0
  -26.3486   29.6948  -42.9985 O   0  0  0  0  0  0
  -24.9249   30.9309  -41.7273 N   0  0  0  0  0  0
  -25.3664   30.5514  -40.3871 C   0  0  0  0  0  0
  -26.6214   31.3032  -39.8874 C   0  0  0  0  0  0
  -27.9847   30.7927  -40.4218 C   0  0  0  0  0  0
  -28.2732   29.2903  -40.2032 C   0  0  0  0  0  0
  -28.2240   28.8526  -38.7273 C   0  0  0  0  0  0
  -28.1560   27.3320  -38.5118 C   0  0  0  0  0  0
  -29.5339   26.6721  -38.3869 C   0  0  0  0  0  0
  -30.2138   26.4746  -39.3982 O   0  0  0  0  0  0
  -29.9585   26.3978  -37.1441 N   0  0  0  0  0  0
  -31.2429   25.8595  -36.9737 O   0  0  0  0  0  0
  -27.3998   30.6174  -45.1448 H   0  0  0  0  0  0
  -21.5853   31.9903  -45.1594 H   0  0  0  0  0  0
  -22.7497   32.2620  -47.3189 H   0  0  0  0  0  0
  -25.4661   31.9847  -48.6114 H   0  0  0  0  0  0
  -27.8120   31.1849  -47.5089 H   0  0  0  0  0  0
  -22.7421   31.1993  -43.1944 H   0  0  0  0  0  0
  -24.2014   31.6328  -41.7655 H   0  0  0  0  0  0
  -24.5432   30.7389  -39.6961 H   0  0  0  0  0  0
  -25.5119   29.4723  -40.3421 H   0  0  0  0  0  0
  -26.5166   32.3636  -40.1241 H   0  0  0  0  0  0
  -26.6237   31.2725  -38.7962 H   0  0  0  0  0  0
  -28.0557   31.0128  -41.4875 H   0  0  0  0  0  0
  -28.7801   31.3745  -39.9556 H   0  0  0  0  0  0
  -27.5621   28.7017  -40.7812 H   0  0  0  0  0  0
  -29.2536   29.0510  -40.6172 H   0  0  0  0  0  0
  -29.0784   29.2694  -38.1926 H   0  0  0  0  0  0
  -27.3378   29.2730  -38.2513 H   0  0  0  0  0  0
  -27.6090   27.1895  -37.5855 H   0  0  0  0  0  0
  -27.5655   26.8400  -39.2847 H   0  0  0  0  0  0
  -29.4875   26.6125  -36.2728 H   0  0  0  0  0  0
  -31.7439   26.5893  -36.5968 H   0  0  0  0  0  0
  1  9  1  0  0  0
  1  2  2  0  0  0
  1 24  1  0  0  0
  2  3  1  0  0  0
  2 25  1  0  0  0
  3  7  2  0  0  0
  3  4  1  0  0  0
  4  5  2  0  0  0
  4 26  1  0  0  0
  5  6  1  0  0  0
  5 27  1  0  0  0
  6 23  1  0  0  0
  6  7  1  0  0  0
  7  8  1  0  0  0
  8  9  2  0  0  0
  8 10  1  0  0  0
  9 28  1  0  0  0
 10 11  2  0  0  0
 10 12  1  0  0  0
 12 13  1  0  0  0
 12 29  1  0  0  0
 13 14  1  0  0  0
 13 30  1  0  0  0
 13 31  1  0  0  0
 14 15  1  0  0  0
 14 32  1  0  0  0
 14 33  1  0  0  0
 15 16  1  0  0  0
 15 34  1  0  0  0
 15 35  1  0  0  0
 16 17  1  0  0  0
 16 36  1  0  0  0
 16 37  1  0  0  0
 17 18  1  0  0  0
 17 38  1  0  0  0
 17 39  1  0  0  0
 18 19  1  0  0  0
 18 40  1  0  0  0
 18 41  1  0  0  0
 19 20  2  0  0  0
 19 21  1  0  0  0
 21 22  1  0  0  0
 21 42  1  0  0  0
 22 43  1  0  0  0
M  END
> <s_m_entry_id>
53574

> <s_m_entry_name>
ligand_docking-pose.67

> <s_m_Source_Path>
/home/csk/Desktop/cluster/DUD-E-result/hdac8

> <s_m_Source_File>
ligand_docking-pose.sdf

> <i_m_Source_File_Index>
67

> <i_lp_mmshare_version>
53161

> <r_lp_tautomer_probability>
1

> <s_lp_Force_Field>
OPLS_2005

> <r_lp_Energy>
13.92071

> <b_lp_Chiralities_Consistent>
1

> <s_lp_Variant>
86139-1

> <s_i_glide_gridfile>
glide-grid_3f07

> <i_i_glide_lignum>
8

> <i_i_glide_rotatable_bonds>
11

> <r_i_docking_score>
-7.59713494708123

> <r_i_glide_ligand_efficiency>
-0.345324315776419

> <r_i_glide_ligand_efficiency_sa>
-0.967612313640211

> <r_i_glide_ligand_efficiency_ln>
-1.85701689329691

> <r_i_glide_gscore>
-7.59713494708123

> <r_i_glide_lipo>
-0.887429827302979

> <r_i_glide_hbond>
-0.681653164590239

> <r_i_glide_metal>
-2.3

> <r_i_glide_rewards>
-1.45264637674622

> <r_i_glide_evdw>
-29.1546878814697

> <r_i_glide_ecoul>
-16.4761295318604

> <r_i_glide_erotb>
1.80205018371269

> <r_i_glide_esite>
-0.148301938301945

> <r_i_glide_emodel>
-70.7674079006249

> <r_i_glide_energy>
-45.6308174133301

> <r_i_glide_einternal>
5.29233312606812

> <i_i_glide_confnum>
3

> <i_i_glide_posenum>
32

> <r_i_glide_eff_state_penalty>
0

> <i_f3d_flags>
0

> <s_user_duplicate_titles>
86139

> <s_m_subgroup_title>
dock_pv

> <s_m_subgroupid>
dock_pv1

> <b_m_subgroup_collapsed>
0

$$$$
440187
                    3D
 Schrodinger Suite 2021-1.
 42 43  0  0  1  0            999 V2000
  -28.3988   34.2727  -46.9636 C   0  0  0  0  0  0
  -28.4420   35.2889  -46.0153 C   0  0  0  0  0  0
  -27.9749   35.0525  -44.7245 C   0  0  0  0  0  0
  -27.4625   33.7977  -44.3542 C   0  0  0  0  0  0
  -27.4130   32.7957  -45.3422 C   0  0  0  0  0  0
  -27.8789   33.0268  -46.6334 C   0  0  0  0  0  0
  -27.0130   33.5236  -42.9426 C   0  0  0  0  0  0
  -27.2520   34.4000  -41.8660 C   0  0  0  0  0  0
  -26.8225   34.0235  -40.5878 C   0  0  0  0  0  0
  -27.0130   34.9222  -39.5810 O   0  0  0  0  0  0
  -26.2319   32.8260  -40.3810 N   0  0  0  0  0  0
  -26.0330   32.0319  -41.4548 C   0  0  0  0  0  0
  -26.3835   32.3321  -42.7270 N   0  0  0  0  0  0
  -25.2737   30.4690  -41.1813 S   0  0  0  0  0  0
  -25.3898   30.1116  -39.3958 C   0  0  0  0  0  0
  -26.8018   29.7633  -38.8857 C   0  0  0  0  0  0
  -27.5547   28.7024  -39.7201 C   0  0  0  0  0  0
  -28.9985   28.4801  -39.2457 C   0  0  0  0  0  0
  -29.1378   27.5876  -37.9810 C   0  0  0  0  0  0
  -30.0390   26.3428  -38.1047 C   0  0  0  0  0  0
  -30.5821   26.0690  -39.1810 O   0  0  0  0  0  0
  -30.2130   25.6130  -36.9912 N   0  0  0  0  0  0
  -31.0229   24.4690  -37.0693 O   0  0  0  0  0  0
  -26.4601   34.6663  -38.8249 H   0  0  0  0  0  0
  -28.7717   34.4516  -47.9619 H   0  0  0  0  0  0
  -28.8406   36.2577  -46.2791 H   0  0  0  0  0  0
  -28.0248   35.8674  -44.0201 H   0  0  0  0  0  0
  -27.0329   31.8108  -45.1136 H   0  0  0  0  0  0
  -27.8485   32.2389  -47.3723 H   0  0  0  0  0  0
  -27.7384   35.3534  -41.9954 H   0  0  0  0  0  0
  -24.9813   30.9529  -38.8335 H   0  0  0  0  0  0
  -24.7284   29.2754  -39.1810 H   0  0  0  0  0  0
  -27.3887   30.6818  -38.8544 H   0  0  0  0  0  0
  -26.7336   29.4237  -37.8534 H   0  0  0  0  0  0
  -27.0129   27.7559  -39.7289 H   0  0  0  0  0  0
  -27.6003   29.0257  -40.7604 H   0  0  0  0  0  0
  -29.5727   28.0937  -40.0842 H   0  0  0  0  0  0
  -29.4339   29.4599  -39.0478 H   0  0  0  0  0  0
  -29.5360   28.2089  -37.1810 H   0  0  0  0  0  0
  -28.1528   27.2655  -37.6436 H   0  0  0  0  0  0
  -29.8081   25.7606  -36.0757 H   0  0  0  0  0  0
  -30.3927   23.7453  -37.1810 H   0  0  0  0  0  0
  1  6  1  0  0  0
  1  2  2  0  0  0
  1 25  1  0  0  0
  2  3  1  0  0  0
  2 26  1  0  0  0
  3  4  2  0  0  0
  3 27  1  0  0  0
  4  5  1  0  0  0
  4  7  1  0  0  0
  5  6  2  0  0  0
  5 28  1  0  0  0
  6 29  1  0  0  0
  7  8  2  0  0  0
  7 13  1  0  0  0
  8  9  1  0  0  0
  8 30  1  0  0  0
  9 11  2  0  0  0
  9 10  1  0  0  0
 10 24  1  0  0  0
 11 12  1  0  0  0
 12 14  1  0  0  0
 12 13  2  0  0  0
 14 15  1  0  0  0
 15 16  1  0  0  0
 15 31  1  0  0  0
 15 32  1  0  0  0
 16 17  1  0  0  0
 16 33  1  0  0  0
 16 34  1  0  0  0
 17 18  1  0  0  0
 17 35  1  0  0  0
 17 36  1  0  0  0
 18 19  1  0  0  0
 18 37  1  0  0  0
 18 38  1  0  0  0
 19 20  1  0  0  0
 19 39  1  0  0  0
 19 40  1  0  0  0
 20 21  2  0  0  0
 20 22  1  0  0  0
 22 23  1  0  0  0
 22 41  1  0  0  0
 23 42  1  0  0  0
M  END
> <s_m_entry_id>
53576

> <s_m_entry_name>
ligand_docking-pose.69

> <s_m_Source_Path>
/home/csk/Desktop/cluster/DUD-E-result/hdac8

> <s_m_Source_File>
ligand_docking-pose.sdf

> <i_m_Source_File_Index>
69

> <i_lp_mmshare_version>
53161

> <r_lp_tautomer_probability>
0.0660144953277732

> <s_lp_Force_Field>
OPLS_2005

> <r_lp_Energy>
9.983752

> <b_lp_Chiralities_Consistent>
1

> <s_lp_Variant>
440187-3

> <s_i_glide_gridfile>
glide-grid_3f07

> <i_i_glide_lignum>
93

> <i_i_glide_rotatable_bonds>
11

> <r_i_docking_score>
-7.57727659889336

> <r_i_glide_ligand_efficiency>
-0.329446808647537

> <r_i_glide_ligand_efficiency_sa>
-0.936902899750991

> <r_i_glide_ligand_efficiency_ln>
-1.83225418855795

> <r_i_glide_gscore>
-7.57727659889336

> <r_i_glide_lipo>
-1.03999026252934

> <r_i_glide_hbond>
-0.352909945032483

> <r_i_glide_metal>
-2.3

> <r_i_glide_rewards>
-1.18096027579708

> <r_i_glide_evdw>
-28.2956485748291

> <r_i_glide_ecoul>
-17.9952354431152

> <r_i_glide_erotb>
1.52594694346993

> <r_i_glide_esite>
-0.115295313795654

> <r_i_glide_emodel>
-71.5284823814476

> <r_i_glide_energy>
-46.2908840179443

> <r_i_glide_einternal>
5.8377890586853

> <i_i_glide_confnum>
136

> <i_i_glide_posenum>
91

> <r_i_glide_eff_state_penalty>
0

> <i_f3d_flags>
0

> <s_user_duplicate_titles>
440187

> <s_m_subgroup_title>
dock_pv

> <s_m_subgroupid>
dock_pv1

> <b_m_subgroup_collapsed>
0

$$$$
86303
                    3D
 Schrodinger Suite 2021-1.
 43 44  0  0  1  0            999 V2000
  -23.5496   31.2283  -44.6883 C   0  0  0  0  0  0
  -23.0368   31.5736  -45.9392 C   0  0  0  0  0  0
  -23.9334   31.5874  -47.0110 C   0  0  0  0  0  0
  -25.3148   31.2690  -46.8519 C   0  0  0  0  0  0
  -25.9225   31.3773  -48.1464 C   0  0  0  0  0  0
  -24.9309   31.7500  -49.0305 C   0  0  0  0  0  0
  -23.7449   31.8710  -48.3484 N   0  0  0  0  0  0
  -25.7856   30.9255  -45.5775 C   0  0  0  0  0  0
  -24.9006   30.9058  -44.4904 C   0  0  0  0  0  0
  -25.4129   30.4939  -43.1311 C   0  0  0  0  0  0
  -26.3190   29.6690  -43.0378 O   0  0  0  0  0  0
  -24.8217   31.0677  -42.0669 N   0  0  0  0  0  0
  -25.0710   30.7459  -40.6589 C   0  0  0  0  0  0
  -26.3738   31.3383  -40.0678 C   0  0  0  0  0  0
  -27.5999   30.3983  -40.0851 C   0  0  0  0  0  0
  -27.5242   29.2338  -39.0761 C   0  0  0  0  0  0
  -28.6435   28.1895  -39.2745 C   0  0  0  0  0  0
  -29.0125   27.4439  -37.9810 C   0  0  0  0  0  0
  -30.0090   26.2812  -38.1101 C   0  0  0  0  0  0
  -30.5872   26.0691  -39.1810 O   0  0  0  0  0  0
  -30.2130   25.5491  -37.0036 N   0  0  0  0  0  0
  -31.1041   24.4690  -37.0795 O   0  0  0  0  0  0
  -22.8817   32.1404  -48.7983 H   0  0  0  0  0  0
  -22.8570   31.1970  -43.8583 H   0  0  0  0  0  0
  -21.9893   31.8073  -46.0656 H   0  0  0  0  0  0
  -26.9598   31.2095  -48.4012 H   0  0  0  0  0  0
  -24.9668   31.9469  -50.0936 H   0  0  0  0  0  0
  -26.8277   30.6720  -45.4424 H   0  0  0  0  0  0
  -24.1525   31.8023  -42.2413 H   0  0  0  0  0  0
  -24.2275   31.1433  -40.0918 H   0  0  0  0  0  0
  -25.0132   29.6690  -40.5004 H   0  0  0  0  0  0
  -26.6201   32.2601  -40.5971 H   0  0  0  0  0  0
  -26.1866   31.6507  -39.0385 H   0  0  0  0  0  0
  -27.7634   30.0102  -41.0883 H   0  0  0  0  0  0
  -28.4905   30.9866  -39.8608 H   0  0  0  0  0  0
  -27.5534   29.6451  -38.0672 H   0  0  0  0  0  0
  -26.5628   28.7247  -39.1460 H   0  0  0  0  0  0
  -28.2801   27.4542  -39.9861 H   0  0  0  0  0  0
  -29.5247   28.6609  -39.7092 H   0  0  0  0  0  0
  -29.4130   28.1505  -37.2519 H   0  0  0  0  0  0
  -28.0874   27.0411  -37.5810 H   0  0  0  0  0  0
  -29.7759   25.6488  -36.0966 H   0  0  0  0  0  0
  -30.5258   23.7021  -37.1810 H   0  0  0  0  0  0
  1  9  1  0  0  0
  1  2  2  0  0  0
  1 24  1  0  0  0
  2  3  1  0  0  0
  2 25  1  0  0  0
  3  7  1  0  0  0
  3  4  2  0  0  0
  4  5  1  0  0  0
  4  8  1  0  0  0
  5  6  2  0  0  0
  5 26  1  0  0  0
  6  7  1  0  0  0
  6 27  1  0  0  0
  7 23  1  0  0  0
  8  9  2  0  0  0
  8 28  1  0  0  0
  9 10  1  0  0  0
 10 11  2  0  0  0
 10 12  1  0  0  0
 12 13  1  0  0  0
 12 29  1  0  0  0
 13 14  1  0  0  0
 13 30  1  0  0  0
 13 31  1  0  0  0
 14 15  1  0  0  0
 14 32  1  0  0  0
 14 33  1  0  0  0
 15 16  1  0  0  0
 15 34  1  0  0  0
 15 35  1  0  0  0
 16 17  1  0  0  0
 16 36  1  0  0  0
 16 37  1  0  0  0
 17 18  1  0  0  0
 17 38  1  0  0  0
 17 39  1  0  0  0
 18 19  1  0  0  0
 18 40  1  0  0  0
 18 41  1  0  0  0
 19 20  2  0  0  0
 19 21  1  0  0  0
 21 22  1  0  0  0
 21 42  1  0  0  0
 22 43  1  0  0  0
M  END
> <s_m_entry_id>
53579

> <s_m_entry_name>
ligand_docking-pose.72

> <s_m_Source_Path>
/home/csk/Desktop/cluster/DUD-E-result/hdac8

> <s_m_Source_File>
ligand_docking-pose.sdf

> <i_m_Source_File_Index>
72

> <i_lp_mmshare_version>
53161

> <r_lp_tautomer_probability>
1

> <s_lp_Force_Field>
OPLS_2005

> <r_lp_Energy>
16.048016

> <b_lp_Chiralities_Consistent>
1

> <s_lp_Variant>
86303-1

> <s_i_glide_gridfile>
glide-grid_3f07

> <i_i_glide_lignum>
7

> <i_i_glide_rotatable_bonds>
11

> <r_i_docking_score>
-7.54405131103988

> <r_i_glide_ligand_efficiency>
-0.342911423229086

> <r_i_glide_ligand_efficiency_sa>
-0.960851293828903

> <r_i_glide_ligand_efficiency_ln>
-1.84404131637573

> <r_i_glide_gscore>
-7.54405131103988

> <r_i_glide_lipo>
-0.981787410999405

> <r_i_glide_hbond>
-0.391956425512849

> <r_i_glide_metal>
-2.3

> <r_i_glide_rewards>
-1.45063724884701

> <r_i_glide_evdw>
-30.1369686126709

> <r_i_glide_ecoul>
-17.4324798583984

> <r_i_glide_erotb>
1.80205018371269

> <r_i_glide_esite>
-0.1

> <r_i_glide_emodel>
-71.7819701744107

> <r_i_glide_energy>
-47.5694484710693

> <r_i_glide_einternal>
6.11422061920166

> <i_i_glide_confnum>
9

> <i_i_glide_posenum>
182

> <r_i_glide_eff_state_penalty>
0

> <i_f3d_flags>
0

> <s_user_duplicate_titles>
86303

> <s_m_subgroup_title>
dock_pv

> <s_m_subgroupid>
dock_pv1

> <b_m_subgroup_collapsed>
0

$$$$
317942
                    3D
 Schrodinger Suite 2021-1.
 43 44  0  0  1  0            999 V2000
  -19.1891   30.4707  -39.8224 C   0  0  0  0  0  0
  -20.0400   31.4018  -39.2311 C   0  0  0  0  0  0
  -20.9803   32.0713  -40.0096 C   0  0  0  0  0  0
  -21.0818   31.7996  -41.3781 C   0  0  0  0  0  0
  -20.2133   30.8697  -41.9642 C   0  0  0  0  0  0
  -19.2705   30.2030  -41.1867 C   0  0  0  0  0  0
  -22.0874   32.5477  -42.2542 C   0  0  0  0  0  0
  -23.5810   32.4201  -41.8588 C   0  0  0  0  0  0
  -24.0322   33.3286  -40.6887 C   0  0  0  0  0  0
  -25.5141   33.7880  -40.7449 C   0  0  0  0  0  0
  -26.6127   32.7381  -40.5020 C   0  0  0  0  0  0
  -27.7753   33.0476  -40.7759 O   0  0  0  0  0  0
  -26.2524   31.5549  -39.9558 N   0  0  0  0  0  0
  -27.0666   30.4391  -39.6803 C   0  0  0  0  0  0
  -26.6139   29.5300  -38.7233 C   0  0  0  0  0  0
  -27.3784   28.4062  -38.3961 C   0  0  0  0  0  0
  -28.5880   28.1520  -39.0484 C   0  0  0  0  0  0
  -29.0203   29.0650  -40.0137 C   0  0  0  0  0  0
  -28.2750   30.1895  -40.3380 C   0  0  0  0  0  0
  -29.4262   26.9275  -38.7434 C   0  0  0  0  0  0
  -30.2130   26.4691  -39.5810 O   0  0  0  0  0  0
  -29.4132   26.4691  -37.4888 N   0  0  0  0  0  0
  -30.2129   25.3516  -37.1736 O   0  0  0  0  0  0
  -18.4570   29.9556  -39.2177 H   0  0  0  0  0  0
  -19.9666   31.6127  -38.1742 H   0  0  0  0  0  0
  -21.6110   32.8099  -39.5389 H   0  0  0  0  0  0
  -20.2633   30.6617  -43.0239 H   0  0  0  0  0  0
  -18.6040   29.4839  -41.6401 H   0  0  0  0  0  0
  -21.9833   32.1891  -43.2797 H   0  0  0  0  0  0
  -21.7959   33.5982  -42.2952 H   0  0  0  0  0  0
  -23.8330   31.3785  -41.6551 H   0  0  0  0  0  0
  -24.1653   32.6894  -42.7401 H   0  0  0  0  0  0
  -23.4223   34.2334  -40.6893 H   0  0  0  0  0  0
  -23.8206   32.8561  -39.7281 H   0  0  0  0  0  0
  -25.7064   34.2827  -41.6977 H   0  0  0  0  0  0
  -25.6623   34.5527  -39.9811 H   0  0  0  0  0  0
  -25.3043   31.5005  -39.6148 H   0  0  0  0  0  0
  -25.6716   29.6945  -38.2211 H   0  0  0  0  0  0
  -27.0132   27.7193  -37.6477 H   0  0  0  0  0  0
  -29.9468   28.9090  -40.5455 H   0  0  0  0  0  0
  -28.6450   30.8401  -41.1151 H   0  0  0  0  0  0
  -28.8793   26.8242  -36.6996 H   0  0  0  0  0  0
  -29.5889   24.6161  -37.1545 H   0  0  0  0  0  0
  1  6  1  0  0  0
  1  2  2  0  0  0
  1 24  1  0  0  0
  2  3  1  0  0  0
  2 25  1  0  0  0
  3  4  2  0  0  0
  3 26  1  0  0  0
  4  5  1  0  0  0
  4  7  1  0  0  0
  5  6  2  0  0  0
  5 27  1  0  0  0
  6 28  1  0  0  0
  7  8  1  0  0  0
  7 29  1  0  0  0
  7 30  1  0  0  0
  8  9  1  0  0  0
  8 31  1  0  0  0
  8 32  1  0  0  0
  9 10  1  0  0  0
  9 33  1  0  0  0
  9 34  1  0  0  0
 10 11  1  0  0  0
 10 35  1  0  0  0
 10 36  1  0  0  0
 11 12  2  0  0  0
 11 13  1  0  0  0
 13 14  1  0  0  0
 13 37  1  0  0  0
 14 19  1  0  0  0
 14 15  2  0  0  0
 15 16  1  0  0  0
 15 38  1  0  0  0
 16 17  2  0  0  0
 16 39  1  0  0  0
 17 18  1  0  0  0
 17 20  1  0  0  0
 18 19  2  0  0  0
 18 40  1  0  0  0
 19 41  1  0  0  0
 20 21  2  0  0  0
 20 22  1  0  0  0
 22 23  1  0  0  0
 22 42  1  0  0  0
 23 43  1  0  0  0
M  END
> <s_m_entry_id>
53580

> <s_m_entry_name>
ligand_docking-pose.73

> <s_m_Source_Path>
/home/csk/Desktop/cluster/DUD-E-result/hdac8

> <s_m_Source_File>
ligand_docking-pose.sdf

> <i_m_Source_File_Index>
73

> <i_lp_mmshare_version>
53161

> <r_lp_tautomer_probability>
1

> <s_lp_Force_Field>
OPLS_2005

> <r_lp_Energy>
27.002422

> <b_lp_Chiralities_Consistent>
1

> <s_lp_Variant>
317942-1

> <s_i_glide_gridfile>
glide-grid_3f07

> <i_i_glide_lignum>
116

> <i_i_glide_rotatable_bonds>
10

> <r_i_docking_score>
-7.53695519685391

> <r_i_glide_ligand_efficiency>
-0.327693704211039

> <r_i_glide_ligand_efficiency_sa>
-0.931917303937014

> <r_i_glide_ligand_efficiency_ln>
-1.82250410793055

> <r_i_glide_gscore>
-7.53695519685391

> <r_i_glide_lipo>
-0.861667337225626

> <r_i_glide_hbond>
-0.606423261278916

> <r_i_glide_metal>
-2.3

> <r_i_glide_rewards>
-1.48816547595703

> <r_i_glide_evdw>
-19.9148559570312

> <r_i_glide_ecoul>
-16.7509632110596

> <r_i_glide_erotb>
1.52165709599867

> <r_i_glide_esite>
-0.293968938880504

> <r_i_glide_emodel>
-55.9370891899195

> <r_i_glide_energy>
-36.6658191680908

> <r_i_glide_einternal>
7.15914344787598

> <i_i_glide_confnum>
11

> <i_i_glide_posenum>
296

> <r_i_glide_eff_state_penalty>
0

> <i_f3d_flags>
0

> <s_user_duplicate_titles>
317942

> <s_m_subgroup_title>
dock_pv

> <s_m_subgroupid>
dock_pv1

> <b_m_subgroup_collapsed>
0

$$$$
363699
                    3D
 Schrodinger Suite 2021-1.
 45 46  0  0  1  0            999 V2000
  -28.2117   33.5575  -46.5114 C   0  0  0  0  0  0
  -27.8129   32.4696  -47.2836 C   0  0  0  0  0  0
  -27.0138   31.4785  -46.7199 C   0  0  0  0  0  0
  -26.6097   31.5759  -45.3843 C   0  0  0  0  0  0
  -27.0129   32.6757  -44.6174 C   0  0  0  0  0  0
  -27.8121   33.6673  -45.1817 C   0  0  0  0  0  0
  -25.7439   30.4708  -44.7789 C   0  0  0  0  0  0
  -24.5650   30.9554  -43.9456 C   0  0  0  0  0  0
  -23.3293   31.1814  -44.4499 C   0  0  0  0  0  0
  -22.2810   31.6798  -43.5901 C   0  0  0  0  0  0
  -21.1860   32.0692  -43.9686 O   0  0  0  0  0  0
  -22.6535   31.7268  -42.2931 N   0  0  0  0  0  0
  -23.8934   31.4396  -41.7924 C   0  0  0  0  0  0
  -24.8330   31.0783  -42.6072 N   0  0  0  0  0  0
  -24.1787   31.5626  -40.0160 S   0  0  0  0  0  0
  -25.9900   31.4286  -39.8830 C   0  0  0  0  0  0
  -26.6033   30.0421  -40.1787 C   0  0  0  0  0  0
  -27.5145   29.5248  -39.0532 C   0  0  0  0  0  0
  -28.2707   28.2379  -39.4257 C   0  0  0  0  0  0
  -28.9115   27.5683  -38.1899 C   0  0  0  0  0  0
  -29.9349   26.4667  -38.4965 C   0  0  0  0  0  0
  -30.5425   26.4690  -39.5756 O   0  0  0  0  0  0
  -30.1539   25.5492  -37.5391 N   0  0  0  0  0  0
  -31.0130   24.4713  -37.8223 O   0  0  0  0  0  0
  -21.9408   32.0688  -41.6718 H   0  0  0  0  0  0
  -28.8388   34.3218  -46.9482 H   0  0  0  0  0  0
  -28.1337   32.3880  -48.3123 H   0  0  0  0  0  0
  -26.7171   30.6362  -47.3270 H   0  0  0  0  0  0
  -26.7138   32.7655  -43.5834 H   0  0  0  0  0  0
  -28.1234   34.5155  -44.5901 H   0  0  0  0  0  0
  -25.3361   29.8558  -45.5812 H   0  0  0  0  0  0
  -26.3703   29.7966  -44.1939 H   0  0  0  0  0  0
  -23.1095   31.0646  -45.4978 H   0  0  0  0  0  0
  -26.4549   32.1938  -40.5064 H   0  0  0  0  0  0
  -26.2131   31.7235  -38.8566 H   0  0  0  0  0  0
  -25.8131   29.3120  -40.3587 H   0  0  0  0  0  0
  -27.1666   30.0979  -41.1118 H   0  0  0  0  0  0
  -28.2394   30.2940  -38.7815 H   0  0  0  0  0  0
  -26.9053   29.3526  -38.1638 H   0  0  0  0  0  0
  -27.5860   27.5303  -39.8986 H   0  0  0  0  0  0
  -29.0237   28.4910  -40.1737 H   0  0  0  0  0  0
  -29.4135   28.3205  -37.5811 H   0  0  0  0  0  0
  -28.1089   27.1627  -37.5810 H   0  0  0  0  0  0
  -29.7008   25.4742  -36.6375 H   0  0  0  0  0  0
  -30.4173   23.7093  -37.8930 H   0  0  0  0  0  0
  1  6  1  0  0  0
  1  2  2  0  0  0
  1 26  1  0  0  0
  2  3  1  0  0  0
  2 27  1  0  0  0
  3  4  2  0  0  0
  3 28  1  0  0  0
  4  5  1  0  0  0
  4  7  1  0  0  0
  5  6  2  0  0  0
  5 29  1  0  0  0
  6 30  1  0  0  0
  7  8  1  0  0  0
  7 31  1  0  0  0
  7 32  1  0  0  0
  8 14  1  0  0  0
  8  9  2  0  0  0
  9 10  1  0  0  0
  9 33  1  0  0  0
 10 11  2  0  0  0
 10 12  1  0  0  0
 12 25  1  0  0  0
 12 13  1  0  0  0
 13 14  2  0  0  0
 13 15  1  0  0  0
 15 16  1  0  0  0
 16 17  1  0  0  0
 16 34  1  0  0  0
 16 35  1  0  0  0
 17 18  1  0  0  0
 17 36  1  0  0  0
 17 37  1  0  0  0
 18 19  1  0  0  0
 18 38  1  0  0  0
 18 39  1  0  0  0
 19 20  1  0  0  0
 19 40  1  0  0  0
 19 41  1  0  0  0
 20 21  1  0  0  0
 20 42  1  0  0  0
 20 43  1  0  0  0
 21 22  2  0  0  0
 21 23  1  0  0  0
 23 24  1  0  0  0
 23 44  1  0  0  0
 24 45  1  0  0  0
M  END
> <s_m_entry_id>
53583

> <s_m_entry_name>
ligand_docking-pose.76

> <s_m_Source_Path>
/home/csk/Desktop/cluster/DUD-E-result/hdac8

> <s_m_Source_File>
ligand_docking-pose.sdf

> <i_m_Source_File_Index>
76

> <i_lp_mmshare_version>
53161

> <r_lp_tautomer_probability>
0.660323467326753

> <s_lp_Force_Field>
OPLS_2005

> <r_lp_Energy>
16.536481

> <b_lp_Chiralities_Consistent>
1

> <s_lp_Variant>
363699-1

> <s_i_glide_gridfile>
glide-grid_3f07

> <i_i_glide_lignum>
112

> <i_i_glide_rotatable_bonds>
11

> <r_i_docking_score>
-7.50036870812016

> <r_i_glide_ligand_efficiency>
-0.31251536283834

> <r_i_glide_ligand_efficiency_sa>
-0.901450294581167

> <r_i_glide_ligand_efficiency_ln>
-1.79518240134679

> <r_i_glide_gscore>
-7.50036870812016

> <r_i_glide_lipo>
-1.45218837219619

> <r_i_glide_hbond>
-0.304

> <r_i_glide_metal>
-2.3

> <r_i_glide_rewards>
-1.11449622039432

> <r_i_glide_evdw>
-28.3704566955566

> <r_i_glide_ecoul>
-15.5679264068604

> <r_i_glide_erotb>
1.5760396501204

> <r_i_glide_esite>
-0.152011969843164

> <r_i_glide_emodel>
-66.1848503789944

> <r_i_glide_energy>
-43.938383102417

> <r_i_glide_einternal>
7.79102659225464

> <i_i_glide_confnum>
173

> <i_i_glide_posenum>
191

> <r_i_glide_eff_state_penalty>
0

> <i_f3d_flags>
0

> <s_user_duplicate_titles>
363699

> <s_m_subgroup_title>
dock_pv

> <s_m_subgroupid>
dock_pv1

> <b_m_subgroup_collapsed>
0

$$$$
246902
                    3D
 Schrodinger Suite 2021-1.
 44 45  0  0  1  0            999 V2000
  -25.6784   31.2690  -49.3674 C   0  0  0  0  0  0
  -24.3062   31.2690  -49.0867 C   0  0  0  0  0  0
  -23.8591   31.2708  -47.7620 C   0  0  0  0  0  0
  -24.8095   31.2886  -46.7445 C   0  0  0  0  0  0
  -26.1677   31.2902  -47.0040 C   0  0  0  0  0  0
  -26.6130   31.2690  -48.3259 C   0  0  0  0  0  0
  -26.8885   31.2047  -45.6950 C   0  0  0  0  0  0
  -25.7406   31.4719  -44.6949 C   0  0  2  0  0  0
  -24.5122   31.2860  -45.4083 O   0  0  0  0  0  0
  -25.7490   30.5545  -43.4554 C   0  0  0  0  0  0
  -25.8130   29.3299  -43.5810 O   0  0  0  0  0  0
  -25.5986   31.1735  -42.2701 N   0  0  0  0  0  0
  -25.3066   30.5355  -40.9874 C   0  0  0  0  0  0
  -26.3668   29.5589  -40.4401 C   0  0  0  0  0  0
  -27.7348   30.1917  -40.1134 C   0  0  0  0  0  0
  -28.4718   29.4685  -38.9695 C   0  0  0  0  0  0
  -28.9418   28.0366  -39.2839 C   0  0  0  0  0  0
  -29.3058   27.2503  -37.9959 C   0  0  0  0  0  0
  -30.3297   26.1159  -38.1526 C   0  0  0  0  0  0
  -31.0130   26.0690  -39.1810 O   0  0  0  0  0  0
  -30.4574   25.2690  -37.1177 N   0  0  0  0  0  0
  -31.4130   24.2428  -37.2038 O   0  0  0  0  0  0
  -26.0199   31.2694  -50.3924 H   0  0  0  0  0  0
  -23.5894   31.2690  -49.8947 H   0  0  0  0  0  0
  -22.8020   31.2667  -47.5399 H   0  0  0  0  0  0
  -27.6686   31.2638  -48.5542 H   0  0  0  0  0  0
  -27.3095   30.2040  -45.5810 H   0  0  0  0  0  0
  -27.6955   31.9295  -45.5833 H   0  0  0  0  0  0
  -25.7578   32.5165  -44.3764 H   0  0  0  0  0  0
  -25.5596   32.1820  -42.2673 H   0  0  0  0  0  0
  -25.2043   31.3557  -40.2742 H   0  0  0  0  0  0
  -24.3217   30.0690  -41.0206 H   0  0  0  0  0  0
  -25.9482   29.1262  -39.5303 H   0  0  0  0  0  0
  -26.4988   28.7179  -41.1208 H   0  0  0  0  0  0
  -28.3546   30.2287  -41.0108 H   0  0  0  0  0  0
  -27.5880   31.2293  -39.8091 H   0  0  0  0  0  0
  -29.3374   30.0634  -38.6734 H   0  0  0  0  0  0
  -27.8095   29.4403  -38.1024 H   0  0  0  0  0  0
  -28.1553   27.4909  -39.8079 H   0  0  0  0  0  0
  -29.7765   28.1065  -39.9810 H   0  0  0  0  0  0
  -29.7235   27.9298  -37.2496 H   0  0  0  0  0  0
  -28.3787   26.8690  -37.5810 H   0  0  0  0  0  0
  -29.9311   25.2562  -36.2539 H   0  0  0  0  0  0
  -30.8845   23.4563  -37.3915 H   0  0  0  0  0  0
  1  6  1  0  0  0
  1  2  2  0  0  0
  1 23  1  0  0  0
  2  3  1  0  0  0
  2 24  1  0  0  0
  3  4  2  0  0  0
  3 25  1  0  0  0
  4  9  1  0  0  0
  4  5  1  0  0  0
  5  6  2  0  0  0
  5  7  1  0  0  0
  6 26  1  0  0  0
  7  8  1  0  0  0
  7 27  1  0  0  0
  7 28  1  0  0  0
  8  9  1  0  0  0
  8 10  1  0  0  0
  8 29  1  0  0  0
 10 11  2  0  0  0
 10 12  1  0  0  0
 12 13  1  0  0  0
 12 30  1  0  0  0
 13 14  1  0  0  0
 13 31  1  0  0  0
 13 32  1  0  0  0
 14 15  1  0  0  0
 14 33  1  0  0  0
 14 34  1  0  0  0
 15 16  1  0  0  0
 15 35  1  0  0  0
 15 36  1  0  0  0
 16 17  1  0  0  0
 16 37  1  0  0  0
 16 38  1  0  0  0
 17 18  1  0  0  0
 17 39  1  0  0  0
 17 40  1  0  0  0
 18 19  1  0  0  0
 18 41  1  0  0  0
 18 42  1  0  0  0
 19 20  2  0  0  0
 19 21  1  0  0  0
 21 22  1  0  0  0
 21 43  1  0  0  0
 22 44  1  0  0  0
M  END
> <s_m_entry_id>
53584

> <s_m_entry_name>
ligand_docking-pose.77

> <s_m_Source_Path>
/home/csk/Desktop/cluster/DUD-E-result/hdac8

> <s_m_Source_File>
ligand_docking-pose.sdf

> <i_m_Source_File_Index>
77

> <i_lp_mmshare_version>
53161

> <r_lp_tautomer_probability>
1

> <s_lp_Force_Field>
OPLS_2005

> <r_lp_Energy>
20.758505

> <b_lp_Chiralities_Consistent>
1

> <s_lp_Variant>
246902-2

> <s_i_glide_gridfile>
glide-grid_3f07

> <i_i_glide_lignum>
48

> <i_i_glide_rotatable_bonds>
11

> <r_i_docking_score>
-7.48842381527081

> <r_i_glide_ligand_efficiency>
-0.340382900694128

> <r_i_glide_ligand_efficiency_sa>
-0.953766274244802

> <r_i_glide_ligand_efficiency_ln>
-1.83044392734756

> <r_i_glide_gscore>
-7.48842381527081

> <r_i_glide_lipo>
-0.999884105359529

> <r_i_glide_hbond>
-0.340857082305457

> <r_i_glide_metal>
-2.3

> <r_i_glide_rewards>
-1.42655210158385

> <r_i_glide_evdw>
-31.9517478942871

> <r_i_glide_ecoul>
-16.6317768096924

> <r_i_glide_erotb>
1.77122339014624

> <r_i_glide_esite>
-0.1

> <r_i_glide_emodel>
-70.7936607127667

> <r_i_glide_energy>
-48.5835247039795

> <r_i_glide_einternal>
8.64685153961182

> <i_i_glide_confnum>
2

> <i_i_glide_posenum>
263

> <r_i_glide_eff_state_penalty>
0

> <i_f3d_flags>
0

> <s_user_duplicate_titles>
246902

> <s_m_subgroup_title>
dock_pv

> <s_m_subgroupid>
dock_pv1

> <b_m_subgroup_collapsed>
0

$$$$
235384
                    3D
 Schrodinger Suite 2021-1.
 55 57  0  0  1  0            999 V2000
  -24.3013   34.7032  -41.7869 C   0  0  0  0  0  0
  -25.4352   33.6937  -42.0705 C   0  0  0  0  0  0
  -26.5307   33.7624  -40.9871 C   0  0  0  0  0  0
  -24.9542   32.3116  -42.2906 N   0  0  1  0  0  0
  -24.1201   32.0996  -43.4830 C   0  0  0  0  0  0
  -24.8953   32.3880  -44.7875 C   0  0  0  0  0  0
  -24.1820   31.9097  -46.0409 C   0  0  0  0  0  0
  -22.8342   31.6497  -46.2320 C   0  0  0  0  0  0
  -22.5994   31.2690  -47.5284 N   0  0  0  0  0  0
  -23.7791   31.2717  -48.2370 C   0  0  0  0  0  0
  -24.8025   31.6653  -47.3190 C   0  0  0  0  0  0
  -26.1265   31.7348  -47.7854 C   0  0  0  0  0  0
  -26.3956   31.4323  -49.1191 C   0  0  0  0  0  0
  -25.3752   31.0706  -49.9940 C   0  0  0  0  0  0
  -24.0463   30.9728  -49.5783 C   0  0  0  0  0  0
  -24.4087   31.6377  -41.0983 C   0  0  0  0  0  0
  -25.4745   30.8051  -40.3950 C   0  0  0  0  0  0
  -26.2526   29.9050  -41.1236 C   0  0  0  0  0  0
  -27.2098   29.1337  -40.4757 C   0  0  0  0  0  0
  -27.4033   29.2271  -39.0990 C   0  0  0  0  0  0
  -26.6130   30.1259  -38.3810 C   0  0  0  0  0  0
  -25.6413   30.8961  -39.0139 C   0  0  0  0  0  0
  -28.4173   28.3954  -38.4089 C   0  0  0  0  0  0
  -28.7731   27.1373  -38.7619 C   0  0  0  0  0  0
  -29.8130   26.3644  -38.1170 C   0  0  0  0  0  0
  -30.5858   25.6690  -38.7810 O   0  0  0  0  0  0
  -29.8749   26.4690  -36.7810 N   0  0  0  0  0  0
  -30.8569   25.7392  -36.0961 O   0  0  0  0  0  0
  -21.6757   31.0412  -47.8684 H   0  0  0  0  0  0
  -24.6948   35.7190  -41.7446 H   0  0  0  0  0  0
  -23.8129   34.5132  -40.8309 H   0  0  0  0  0  0
  -23.5354   34.6940  -42.5613 H   0  0  0  0  0  0
  -25.9302   34.0141  -42.9868 H   0  0  0  0  0  0
  -27.0173   34.7377  -40.9904 H   0  0  0  0  0  0
  -27.3016   33.0091  -41.1518 H   0  0  0  0  0  0
  -26.1234   33.6140  -39.9858 H   0  0  0  0  0  0
  -23.2018   32.6849  -43.4283 H   0  0  0  0  0  0
  -23.8242   31.0492  -43.5083 H   0  0  0  0  0  0
  -25.8730   31.9063  -44.7323 H   0  0  0  0  0  0
  -25.0483   33.4610  -44.9010 H   0  0  0  0  0  0
  -22.0031   31.7084  -45.5416 H   0  0  0  0  0  0
  -26.9284   32.0225  -47.1217 H   0  0  0  0  0  0
  -27.4130   31.4888  -49.4820 H   0  0  0  0  0  0
  -25.6242   30.8690  -51.0260 H   0  0  0  0  0  0
  -23.2626   30.6933  -50.2672 H   0  0  0  0  0  0
  -23.9486   32.3457  -40.4079 H   0  0  0  0  0  0
  -23.6099   30.9395  -41.3538 H   0  0  0  0  0  0
  -26.1228   29.8170  -42.1925 H   0  0  0  0  0  0
  -27.8130   28.4690  -41.0608 H   0  0  0  0  0  0
  -26.7526   30.2500  -37.3207 H   0  0  0  0  0  0
  -25.0431   31.5863  -38.4347 H   0  0  0  0  0  0
  -28.9219   28.8690  -37.5810 H   0  0  0  0  0  0
  -28.2814   26.6369  -39.5810 H   0  0  0  0  0  0
  -29.2492   26.9937  -36.1703 H   0  0  0  0  0  0
  -30.3593   25.0448  -35.6541 H   0  0  0  0  0  0
  1  2  1  0  0  0
  1 30  1  0  0  0
  1 31  1  0  0  0
  1 32  1  0  0  0
  2  3  1  0  0  0
  2  4  1  0  0  0
  2 33  1  0  0  0
  3 34  1  0  0  0
  3 35  1  0  0  0
  3 36  1  0  0  0
  4  5  1  0  0  0
  4 16  1  0  0  0
  5  6  1  0  0  0
  5 37  1  0  0  0
  5 38  1  0  0  0
  6  7  1  0  0  0
  6 39  1  0  0  0
  6 40  1  0  0  0
  7 11  1  0  0  0
  7  8  2  0  0  0
  8  9  1  0  0  0
  8 41  1  0  0  0
  9 29  1  0  0  0
  9 10  1  0  0  0
 10 15  1  0  0  0
 10 11  2  0  0  0
 11 12  1  0  0  0
 12 13  2  0  0  0
 12 42  1  0  0  0
 13 14  1  0  0  0
 13 43  1  0  0  0
 14 15  2  0  0  0
 14 44  1  0  0  0
 15 45  1  0  0  0
 16 17  1  0  0  0
 16 46  1  0  0  0
 16 47  1  0  0  0
 17 22  1  0  0  0
 17 18  2  0  0  0
 18 19  1  0  0  0
 18 48  1  0  0  0
 19 20  2  0  0  0
 19 49  1  0  0  0
 20 21  1  0  0  0
 20 23  1  0  0  0
 21 22  2  0  0  0
 21 50  1  0  0  0
 22 51  1  0  0  0
 23 24  2  0  0  0
 23 52  1  0  0  0
 24 25  1  0  0  0
 24 53  1  0  0  0
 25 26  2  0  0  0
 25 27  1  0  0  0
 27 28  1  0  0  0
 27 54  1  0  0  0
 28 55  1  0  0  0
M  END
> <s_m_entry_id>
53585

> <s_m_entry_name>
ligand_docking-pose.78

> <s_m_Source_Path>
/home/csk/Desktop/cluster/DUD-E-result/hdac8

> <s_m_Source_File>
ligand_docking-pose.sdf

> <i_m_Source_File_Index>
78

> <i_lp_mmshare_version>
53161

> <r_lp_tautomer_probability>
1

> <s_lp_Force_Field>
OPLS_2005

> <r_lp_Energy>
33.93116

> <b_lp_Chiralities_Consistent>
1

> <s_lp_Variant>
235384-1

> <s_i_glide_gridfile>
glide-grid_3f07

> <i_i_glide_lignum>
310

> <i_i_glide_rotatable_bonds>
10

> <r_i_docking_score>
-7.48622757344136

> <r_i_glide_ligand_efficiency>
-0.267365270480049

> <r_i_glide_ligand_efficiency_sa>
-0.811878430900487

> <r_i_glide_ligand_efficiency_ln>
-1.72804112914295

> <r_i_glide_gscore>
-7.48622757344136

> <r_i_glide_lipo>
-1.12547563186987

> <r_i_glide_hbond>
-0.32

> <r_i_glide_metal>
-2.3

> <r_i_glide_rewards>
-1.02154046327667

> <r_i_glide_evdw>
-33.0984840393066

> <r_i_glide_ecoul>
-12.6473016738892

> <r_i_glide_erotb>
0.951516382507708

> <r_i_glide_esite>
-0.118708407753822

> <r_i_glide_emodel>
-63.0883082539653

> <r_i_glide_energy>
-45.7457857131958

> <r_i_glide_einternal>
14.6639852523804

> <i_i_glide_confnum>
9

> <i_i_glide_posenum>
308

> <r_i_glide_eff_state_penalty>
0

> <i_f3d_flags>
0

> <s_user_duplicate_titles>
235384

> <s_m_subgroup_title>
dock_pv

> <s_m_subgroupid>
dock_pv1

> <b_m_subgroup_collapsed>
0

$$$$
161489
                    3D
 Schrodinger Suite 2021-1.
 52 53  0  0  1  0            999 V2000
  -28.2130   33.5378  -46.7243 C   0  0  0  0  0  0
  -27.7969   32.2244  -46.5506 C   0  0  0  0  0  0
  -26.8491   31.9118  -45.5864 C   0  0  0  0  0  0
  -26.2698   32.9346  -44.8067 C   0  0  0  0  0  0
  -26.7065   34.2647  -44.9887 C   0  0  0  0  0  0
  -27.6738   34.5530  -45.9438 C   0  0  0  0  0  0
  -25.2444   32.5860  -43.7414 C   0  0  0  0  0  0
  -25.7551   32.6659  -42.2662 C   0  0  1  0  0  0
  -25.0892   31.6592  -41.2950 C   0  0  0  0  0  0
  -24.2461   30.8690  -41.7136 O   0  0  0  0  0  0
  -25.5197   31.6747  -40.0208 N   0  0  0  0  0  0
  -25.2303   30.6412  -39.0225 C   0  0  0  0  0  0
  -26.4961   29.8433  -38.6259 C   0  0  0  0  0  0
  -27.3382   29.3199  -39.8164 C   0  0  0  0  0  0
  -28.6804   28.6683  -39.4293 C   0  0  0  0  0  0
  -28.5296   27.3142  -38.6981 C   0  0  0  0  0  0
  -29.8108   26.4683  -38.6332 C   0  0  0  0  0  0
  -30.6095   26.4691  -39.5808 O   0  0  0  0  0  0
  -29.9688   25.7063  -37.5403 N   0  0  0  0  0  0
  -31.0156   24.7769  -37.5165 O   0  0  0  0  0  0
  -25.8292   34.0620  -41.7567 N   0  0  0  0  0  0
  -26.9966   34.6174  -41.3385 C   0  0  0  0  0  0
  -28.0953   34.0705  -41.2227 O   0  0  0  0  0  0
  -26.7347   36.0760  -41.0180 C   0  0  0  0  0  0
  -25.2638   36.2685  -41.2713 C   0  0  0  0  0  0
  -24.7644   34.9077  -41.7047 C   0  0  0  0  0  0
  -23.5895   34.6586  -41.9696 O   0  0  0  0  0  0
  -26.7726   32.2749  -42.3222 H   0  0  0  0  0  0
  -28.9613   33.7699  -47.4694 H   0  0  0  0  0  0
  -28.2128   31.4399  -47.1645 H   0  0  0  0  0  0
  -26.5475   30.8831  -45.4514 H   0  0  0  0  0  0
  -26.2891   35.0636  -44.3942 H   0  0  0  0  0  0
  -28.0040   35.5720  -46.0850 H   0  0  0  0  0  0
  -24.8836   31.5827  -43.9685 H   0  0  0  0  0  0
  -24.3757   33.2245  -43.8942 H   0  0  0  0  0  0
  -26.1156   32.4306  -39.7145 H   0  0  0  0  0  0
  -24.4712   29.9462  -39.3902 H   0  0  0  0  0  0
  -24.8059   31.1347  -38.1465 H   0  0  0  0  0  0
  -26.2033   29.0078  -37.9881 H   0  0  0  0  0  0
  -27.1132   30.4773  -37.9916 H   0  0  0  0  0  0
  -27.5705   30.1474  -40.4877 H   0  0  0  0  0  0
  -26.7420   28.6234  -40.4085 H   0  0  0  0  0  0
  -29.2557   29.3616  -38.8131 H   0  0  0  0  0  0
  -29.2513   28.5414  -40.3516 H   0  0  0  0  0  0
  -27.7958   26.7068  -39.2283 H   0  0  0  0  0  0
  -28.1274   27.4707  -37.6975 H   0  0  0  0  0  0
  -29.3554   25.6335  -36.7400 H   0  0  0  0  0  0
  -30.5651   23.9236  -37.5813 H   0  0  0  0  0  0
  -27.3505   36.6868  -41.6793 H   0  0  0  0  0  0
  -27.0128   36.2547  -39.9790 H   0  0  0  0  0  0
  -25.0719   36.9707  -42.0836 H   0  0  0  0  0  0
  -24.7000   36.5558  -40.3851 H   0  0  0  0  0  0
  1  6  1  0  0  0
  1  2  2  0  0  0
  1 29  1  0  0  0
  2  3  1  0  0  0
  2 30  1  0  0  0
  3  4  2  0  0  0
  3 31  1  0  0  0
  4  5  1  0  0  0
  4  7  1  0  0  0
  5  6  2  0  0  0
  5 32  1  0  0  0
  6 33  1  0  0  0
  7  8  1  0  0  0
  7 34  1  0  0  0
  7 35  1  0  0  0
  8 28  1  0  0  0
  8  9  1  0  0  0
  8 21  1  0  0  0
  9 10  2  0  0  0
  9 11  1  0  0  0
 11 12  1  0  0  0
 11 36  1  0  0  0
 12 13  1  0  0  0
 12 37  1  0  0  0
 12 38  1  0  0  0
 13 14  1  0  0  0
 13 39  1  0  0  0
 13 40  1  0  0  0
 14 15  1  0  0  0
 14 41  1  0  0  0
 14 42  1  0  0  0
 15 16  1  0  0  0
 15 43  1  0  0  0
 15 44  1  0  0  0
 16 17  1  0  0  0
 16 45  1  0  0  0
 16 46  1  0  0  0
 17 18  2  0  0  0
 17 19  1  0  0  0
 19 20  1  0  0  0
 19 47  1  0  0  0
 20 48  1  0  0  0
 21 26  1  0  0  0
 21 22  1  0  0  0
 22 23  2  0  0  0
 22 24  1  0  0  0
 24 25  1  0  0  0
 24 49  1  0  0  0
 24 50  1  0  0  0
 25 26  1  0  0  0
 25 51  1  0  0  0
 25 52  1  0  0  0
 26 27  2  0  0  0
M  END
> <s_m_entry_id>
53586

> <s_m_entry_name>
ligand_docking-pose.79

> <s_m_Source_Path>
/home/csk/Desktop/cluster/DUD-E-result/hdac8

> <s_m_Source_File>
ligand_docking-pose.sdf

> <i_m_Source_File_Index>
79

> <i_lp_mmshare_version>
53161

> <r_lp_tautomer_probability>
1

> <s_lp_Force_Field>
OPLS_2005

> <r_lp_Energy>
26.751164

> <b_lp_Chiralities_Consistent>
1

> <s_lp_Variant>
161489-1

> <s_i_glide_gridfile>
glide-grid_3f07

> <i_i_glide_lignum>
147

> <i_i_glide_rotatable_bonds>
13

> <r_i_docking_score>
-7.47899136364097

> <r_i_glide_ligand_efficiency>
-0.276999680134851

> <r_i_glide_ligand_efficiency_sa>
-0.830999039491607

> <r_i_glide_ligand_efficiency_ln>
-1.74098588864651

> <r_i_glide_gscore>
-7.47899136364097

> <r_i_glide_lipo>
-1.13595357778937

> <r_i_glide_hbond>
-0.307573661686576

> <r_i_glide_metal>
-2.3

> <r_i_glide_rewards>
-0.909623254988973

> <r_i_glide_evdw>
-27.4519100189209

> <r_i_glide_ecoul>
-18.9306316375732

> <r_i_glide_erotb>
1.64723193997265

> <r_i_glide_esite>
-0.260882562566674

> <r_i_glide_emodel>
-69.653423261473

> <r_i_glide_energy>
-46.3825416564941

> <r_i_glide_einternal>
6.93957233428955

> <i_i_glide_confnum>
278

> <i_i_glide_posenum>
113

> <r_i_glide_eff_state_penalty>
0

> <i_f3d_flags>
0

> <s_user_duplicate_titles>
161489

> <s_m_subgroup_title>
dock_pv

> <s_m_subgroupid>
dock_pv1

> <b_m_subgroup_collapsed>
0

$$$$
331367
                    3D
 Schrodinger Suite 2021-1.
 42 43  0  0  1  0            999 V2000
  -27.3175   31.8113  -47.1809 C   0  0  0  0  0  0
  -26.0954   31.2847  -46.7704 C   0  0  0  0  0  0
  -25.4524   31.8186  -45.6573 C   0  0  0  0  0  0
  -26.0381   32.8756  -44.9554 C   0  0  0  0  0  0
  -27.2632   33.4029  -45.3749 C   0  0  0  0  0  0
  -27.9042   32.8690  -46.4897 C   0  0  0  0  0  0
  -25.3225   33.4694  -43.7467 C   0  0  0  0  0  0
  -25.3568   32.6007  -42.4958 C   0  0  0  0  0  0
  -24.1919   32.3178  -41.7729 C   0  0  0  0  0  0
  -24.3105   31.5184  -40.6302 C   0  0  0  0  0  0
  -25.5199   31.0328  -40.2493 N   0  0  0  0  0  0
  -26.6013   31.3677  -40.9988 C   0  0  0  0  0  0
  -26.5750   32.1327  -42.1156 N   0  0  0  0  0  0
  -28.1903   30.8017  -40.4750 S   0  0  0  0  0  0
  -27.9503   29.9549  -38.8914 C   0  0  0  0  0  0
  -27.3949   28.5253  -38.9747 C   0  0  0  0  0  0
  -28.4889   27.4735  -39.2094 C   0  0  0  0  0  0
  -29.3096   27.1643  -37.9455 C   0  0  0  0  0  0
  -30.3578   26.0690  -38.1330 C   0  0  0  0  0  0
  -31.0130   26.0690  -39.1810 O   0  0  0  0  0  0
  -30.5072   25.2000  -37.1212 N   0  0  0  0  0  0
  -31.4130   24.1429  -37.2714 O   0  0  0  0  0  0
  -23.1522   31.2690  -39.9501 O   0  0  0  0  0  0
  -27.8130   31.3964  -48.0462 H   0  0  0  0  0  0
  -25.6478   30.4690  -47.3162 H   0  0  0  0  0  0
  -24.5033   31.4118  -45.3394 H   0  0  0  0  0  0
  -27.7202   34.2225  -44.8399 H   0  0  0  0  0  0
  -28.8526   33.2704  -46.8176 H   0  0  0  0  0  0
  -25.7530   34.4394  -43.4942 H   0  0  0  0  0  0
  -24.2882   33.6742  -44.0275 H   0  0  0  0  0  0
  -23.2359   32.7097  -42.0869 H   0  0  0  0  0  0
  -28.9100   29.9635  -38.3810 H   0  0  0  0  0  0
  -27.2720   30.5679  -38.2986 H   0  0  0  0  0  0
  -26.8412   28.2894  -38.0649 H   0  0  0  0  0  0
  -26.6621   28.4690  -39.7810 H   0  0  0  0  0  0
  -28.0186   26.5603  -39.5810 H   0  0  0  0  0  0
  -29.1582   27.8349  -39.9846 H   0  0  0  0  0  0
  -29.8130   28.0517  -37.5646 H   0  0  0  0  0  0
  -28.6130   26.8690  -37.1810 H   0  0  0  0  0  0
  -29.9812   25.1565  -36.2582 H   0  0  0  0  0  0
  -30.8469   23.3829  -37.4624 H   0  0  0  0  0  0
  -22.4211   31.8041  -40.2624 H   0  0  0  0  0  0
  1  6  1  0  0  0
  1  2  2  0  0  0
  1 24  1  0  0  0
  2  3  1  0  0  0
  2 25  1  0  0  0
  3  4  2  0  0  0
  3 26  1  0  0  0
  4  5  1  0  0  0
  4  7  1  0  0  0
  5  6  2  0  0  0
  5 27  1  0  0  0
  6 28  1  0  0  0
  7  8  1  0  0  0
  7 29  1  0  0  0
  7 30  1  0  0  0
  8 13  1  0  0  0
  8  9  2  0  0  0
  9 10  1  0  0  0
  9 31  1  0  0  0
 10 11  2  0  0  0
 10 23  1  0  0  0
 11 12  1  0  0  0
 12 13  2  0  0  0
 12 14  1  0  0  0
 14 15  1  0  0  0
 15 16  1  0  0  0
 15 32  1  0  0  0
 15 33  1  0  0  0
 16 17  1  0  0  0
 16 34  1  0  0  0
 16 35  1  0  0  0
 17 18  1  0  0  0
 17 36  1  0  0  0
 17 37  1  0  0  0
 18 19  1  0  0  0
 18 38  1  0  0  0
 18 39  1  0  0  0
 19 20  2  0  0  0
 19 21  1  0  0  0
 21 22  1  0  0  0
 21 40  1  0  0  0
 22 41  1  0  0  0
 23 42  1  0  0  0
M  END
> <s_m_entry_id>
53591

> <s_m_entry_name>
ligand_docking-pose.84

> <s_m_Source_Path>
/home/csk/Desktop/cluster/DUD-E-result/hdac8

> <s_m_Source_File>
ligand_docking-pose.sdf

> <i_m_Source_File_Index>
84

> <i_lp_mmshare_version>
53161

> <r_lp_tautomer_probability>
0.0660144953277732

> <s_lp_Force_Field>
OPLS_2005

> <r_lp_Energy>
7.818574

> <b_lp_Chiralities_Consistent>
1

> <s_lp_Variant>
331367-3

> <s_i_glide_gridfile>
glide-grid_3f07

> <i_i_glide_lignum>
105

> <i_i_glide_rotatable_bonds>
11

> <r_i_docking_score>
-7.42663946567255

> <r_i_glide_ligand_efficiency>
-0.32289736807272

> <r_i_glide_ligand_efficiency_sa>
-0.918277161983234

> <r_i_glide_ligand_efficiency_ln>
-1.79582876384315

> <r_i_glide_gscore>
-7.42663946567255

> <r_i_glide_lipo>
-1.15591197002433

> <r_i_glide_hbond>
-0.22924154591193

> <r_i_glide_metal>
-2.3

> <r_i_glide_rewards>
-1.28007289686639

> <r_i_glide_evdw>
-32.7455215454102

> <r_i_glide_ecoul>
-14.9531946182251

> <r_i_glide_erotb>
1.52594694346993

> <r_i_glide_esite>
-0.107104726335563

> <r_i_glide_emodel>
-70.8097261926638

> <r_i_glide_energy>
-47.6987161636353

> <r_i_glide_einternal>
5.78683090209961

> <i_i_glide_confnum>
184

> <i_i_glide_posenum>
146

> <r_i_glide_eff_state_penalty>
0

> <i_f3d_flags>
0

> <s_user_duplicate_titles>
331367

> <s_m_subgroup_title>
dock_pv

> <s_m_subgroupid>
dock_pv1

> <b_m_subgroup_collapsed>
0

$$$$
331372
                    3D
 Schrodinger Suite 2021-1.
 51 52  0  0  1  0            999 V2000
  -27.7296   35.6690  -40.5020 C   0  0  0  0  0  0
  -28.6053   36.0704  -41.5096 C   0  0  0  0  0  0
  -28.2360   35.9251  -42.8451 C   0  0  0  0  0  0
  -26.9892   35.3833  -43.1707 C   0  0  0  0  0  0
  -26.1160   34.9835  -42.1532 C   0  0  0  0  0  0
  -26.4894   35.1188  -40.8178 C   0  0  0  0  0  0
  -26.5516   35.2960  -44.6327 C   0  0  0  0  0  0
  -26.7607   33.9410  -45.2992 C   0  0  0  0  0  0
  -27.4218   33.8133  -46.5233 C   0  0  0  0  0  0
  -27.5555   32.5296  -47.0638 C   0  0  0  0  0  0
  -27.0647   31.4392  -46.4131 N   0  0  0  0  0  0
  -26.4317   31.6539  -45.2311 C   0  0  0  0  0  0
  -26.2500   32.8660  -44.6517 N   0  0  0  0  0  0
  -25.8130   30.2368  -44.3675 S   0  0  0  0  0  0
  -25.1824   30.8422  -42.7688 C   0  0  0  0  0  0
  -26.2642   31.3203  -41.7862 C   0  0  0  0  0  0
  -26.9715   30.1728  -41.0493 C   0  0  0  0  0  0
  -28.2353   30.6435  -40.3067 C   0  0  0  0  0  0
  -28.5655   29.8073  -39.0628 C   0  0  0  0  0  0
  -28.8961   28.3293  -39.3241 C   0  0  0  0  0  0
  -29.1328   27.5492  -38.0026 C   0  0  0  0  0  0
  -30.0467   26.3199  -38.1123 C   0  0  0  0  0  0
  -30.6130   26.0690  -39.1810 O   0  0  0  0  0  0
  -30.2130   25.5909  -36.9980 N   0  0  0  0  0  0
  -31.0517   24.4690  -37.0624 O   0  0  0  0  0  0
  -28.2130   32.4690  -48.2581 O   0  0  0  0  0  0
  -28.0001   35.8024  -39.4643 H   0  0  0  0  0  0
  -29.5577   36.5125  -41.2575 H   0  0  0  0  0  0
  -28.9097   36.2515  -43.6242 H   0  0  0  0  0  0
  -25.1458   34.5738  -42.3954 H   0  0  0  0  0  0
  -25.8130   34.8173  -40.0287 H   0  0  0  0  0  0
  -25.4915   35.5447  -44.7009 H   0  0  0  0  0  0
  -27.0639   36.0691  -45.2075 H   0  0  0  0  0  0
  -27.8195   34.6746  -47.0399 H   0  0  0  0  0  0
  -24.4962   31.6626  -42.9826 H   0  0  0  0  0  0
  -24.5803   30.0690  -42.2985 H   0  0  0  0  0  0
  -27.0069   31.9175  -42.3157 H   0  0  0  0  0  0
  -25.8144   31.9941  -41.0549 H   0  0  0  0  0  0
  -26.2618   29.7271  -40.3496 H   0  0  0  0  0  0
  -27.2427   29.3800  -41.7468 H   0  0  0  0  0  0
  -29.0838   30.6565  -40.9925 H   0  0  0  0  0  0
  -28.1009   31.6765  -39.9810 H   0  0  0  0  0  0
  -29.4129   30.2696  -38.5533 H   0  0  0  0  0  0
  -27.7177   29.8683  -38.3810 H   0  0  0  0  0  0
  -28.0833   27.8532  -39.8756 H   0  0  0  0  0  0
  -29.7657   28.2986  -39.9810 H   0  0  0  0  0  0
  -29.6023   28.2064  -37.2675 H   0  0  0  0  0  0
  -28.1684   27.2678  -37.5810 H   0  0  0  0  0  0
  -29.7925   25.7310  -36.0884 H   0  0  0  0  0  0
  -30.4404   23.7303  -37.1810 H   0  0  0  0  0  0
  -28.4222   31.5653  -48.5247 H   0  0  0  0  0  0
  1  6  1  0  0  0
  1  2  2  0  0  0
  1 27  1  0  0  0
  2  3  1  0  0  0
  2 28  1  0  0  0
  3  4  2  0  0  0
  3 29  1  0  0  0
  4  5  1  0  0  0
  4  7  1  0  0  0
  5  6  2  0  0  0
  5 30  1  0  0  0
  6 31  1  0  0  0
  7  8  1  0  0  0
  7 32  1  0  0  0
  7 33  1  0  0  0
  8 13  1  0  0  0
  8  9  2  0  0  0
  9 10  1  0  0  0
  9 34  1  0  0  0
 10 11  2  0  0  0
 10 26  1  0  0  0
 11 12  1  0  0  0
 12 13  2  0  0  0
 12 14  1  0  0  0
 14 15  1  0  0  0
 15 16  1  0  0  0
 15 35  1  0  0  0
 15 36  1  0  0  0
 16 17  1  0  0  0
 16 37  1  0  0  0
 16 38  1  0  0  0
 17 18  1  0  0  0
 17 39  1  0  0  0
 17 40  1  0  0  0
 18 19  1  0  0  0
 18 41  1  0  0  0
 18 42  1  0  0  0
 19 20  1  0  0  0
 19 43  1  0  0  0
 19 44  1  0  0  0
 20 21  1  0  0  0
 20 45  1  0  0  0
 20 46  1  0  0  0
 21 22  1  0  0  0
 21 47  1  0  0  0
 21 48  1  0  0  0
 22 23  2  0  0  0
 22 24  1  0  0  0
 24 25  1  0  0  0
 24 49  1  0  0  0
 25 50  1  0  0  0
 26 51  1  0  0  0
M  END
> <s_m_entry_id>
53592

> <s_m_entry_name>
ligand_docking-pose.85

> <s_m_Source_Path>
/home/csk/Desktop/cluster/DUD-E-result/hdac8

> <s_m_Source_File>
ligand_docking-pose.sdf

> <i_m_Source_File_Index>
85

> <i_lp_mmshare_version>
53161

> <r_lp_tautomer_probability>
0.0660144953277732

> <s_lp_Force_Field>
OPLS_2005

> <r_lp_Energy>
5.700933

> <b_lp_Chiralities_Consistent>
1

> <s_lp_Variant>
331372-3

> <s_i_glide_gridfile>
glide-grid_3f07

> <i_i_glide_lignum>
99

> <i_i_glide_rotatable_bonds>
14

> <r_i_docking_score>
-7.41671098335072

> <r_i_glide_ligand_efficiency>
-0.285258114744259

> <r_i_glide_ligand_efficiency_sa>
-0.845076042493385

> <r_i_glide_ligand_efficiency_ln>
-1.74179023822623

> <r_i_glide_gscore>
-7.41671098335072

> <r_i_glide_lipo>
-0.989827074356909

> <r_i_glide_hbond>
-0.494018547435451

> <r_i_glide_metal>
-2.3

> <r_i_glide_rewards>
-1.02047426158599

> <r_i_glide_evdw>
-30.8497428894043

> <r_i_glide_ecoul>
-17.444055557251

> <r_i_glide_erotb>
1.64670437808549

> <r_i_glide_esite>
-0.1

> <r_i_glide_emodel>
-72.6145989737325

> <r_i_glide_energy>
-48.2937984466553

> <r_i_glide_einternal>
6.3895092010498

> <i_i_glide_confnum>
239

> <i_i_glide_posenum>
326

> <r_i_glide_eff_state_penalty>
0

> <i_f3d_flags>
0

> <s_user_duplicate_titles>
331372

> <s_m_subgroup_title>
dock_pv

> <s_m_subgroupid>
dock_pv1

> <b_m_subgroup_collapsed>
0

$$$$
86140
                    3D
 Schrodinger Suite 2021-1.
 43 44  0  0  1  0            999 V2000
  -25.7660   31.5480  -47.3240 C   0  0  0  0  0  0
  -26.1386   31.5755  -45.9810 C   0  0  0  0  0  0
  -25.1968   31.4901  -44.9463 C   0  0  0  0  0  0
  -23.8277   31.3709  -45.2414 C   0  0  0  0  0  0
  -23.4556   31.3559  -46.5894 C   0  0  0  0  0  0
  -24.4076   31.4402  -47.6481 C   0  0  0  0  0  0
  -23.6716   31.3799  -48.8775 C   0  0  0  0  0  0
  -22.3356   31.2709  -48.5481 C   0  0  0  0  0  0
  -22.2130   31.2690  -47.1810 N   0  0  0  0  0  0
  -25.6750   31.5569  -43.5141 C   0  0  0  0  0  0
  -26.6915   32.1889  -43.2224 O   0  0  0  0  0  0
  -24.9569   30.8690  -42.6047 N   0  0  0  0  0  0
  -25.2773   30.7857  -41.1774 C   0  0  0  0  0  0
  -26.5480   29.9619  -40.8790 C   0  0  0  0  0  0
  -27.0650   30.1164  -39.4326 C   0  0  0  0  0  0
  -28.5623   29.7778  -39.3026 C   0  0  0  0  0  0
  -28.9054   28.2801  -39.4056 C   0  0  0  0  0  0
  -29.1070   27.5529  -38.0459 C   0  0  0  0  0  0
  -30.0407   26.3298  -38.1183 C   0  0  0  0  0  0
  -30.6142   26.0690  -39.1810 O   0  0  0  0  0  0
  -30.2130   25.6107  -36.9972 N   0  0  0  0  0  0
  -31.0341   24.4723  -37.0608 O   0  0  0  0  0  0
  -21.3205   31.1765  -46.7101 H   0  0  0  0  0  0
  -26.5151   31.6144  -48.0993 H   0  0  0  0  0  0
  -27.1906   31.6690  -45.7444 H   0  0  0  0  0  0
  -23.0784   31.3244  -44.4644 H   0  0  0  0  0  0
  -24.0661   31.4177  -49.8819 H   0  0  0  0  0  0
  -21.4531   31.1952  -49.1698 H   0  0  0  0  0  0
  -24.1282   30.3891  -42.9157 H   0  0  0  0  0  0
  -25.3923   31.8003  -40.7883 H   0  0  0  0  0  0
  -24.4312   30.3773  -40.6224 H   0  0  0  0  0  0
  -26.3626   28.9098  -41.0986 H   0  0  0  0  0  0
  -27.3364   30.2709  -41.5663 H   0  0  0  0  0  0
  -26.9301   31.1512  -39.1137 H   0  0  0  0  0  0
  -26.4696   29.5132  -38.7451 H   0  0  0  0  0  0
  -29.1036   30.3195  -40.0807 H   0  0  0  0  0  0
  -28.9643   30.1864  -38.3810 H   0  0  0  0  0  0
  -28.1466   27.7494  -39.9810 H   0  0  0  0  0  0
  -29.8130   28.2294  -40.0056 H   0  0  0  0  0  0
  -29.5530   28.2358  -37.3211 H   0  0  0  0  0  0
  -28.1365   27.2690  -37.6394 H   0  0  0  0  0  0
  -29.7832   25.7502  -36.0919 H   0  0  0  0  0  0
  -30.4113   23.7435  -37.1810 H   0  0  0  0  0  0
  1  6  1  0  0  0
  1  2  2  0  0  0
  1 24  1  0  0  0
  2  3  1  0  0  0
  2 25  1  0  0  0
  3  4  2  0  0  0
  3 10  1  0  0  0
  4  5  1  0  0  0
  4 26  1  0  0  0
  5  9  1  0  0  0
  5  6  2  0  0  0
  6  7  1  0  0  0
  7  8  2  0  0  0
  7 27  1  0  0  0
  8  9  1  0  0  0
  8 28  1  0  0  0
  9 23  1  0  0  0
 10 11  2  0  0  0
 10 12  1  0  0  0
 12 13  1  0  0  0
 12 29  1  0  0  0
 13 14  1  0  0  0
 13 30  1  0  0  0
 13 31  1  0  0  0
 14 15  1  0  0  0
 14 32  1  0  0  0
 14 33  1  0  0  0
 15 16  1  0  0  0
 15 34  1  0  0  0
 15 35  1  0  0  0
 16 17  1  0  0  0
 16 36  1  0  0  0
 16 37  1  0  0  0
 17 18  1  0  0  0
 17 38  1  0  0  0
 17 39  1  0  0  0
 18 19  1  0  0  0
 18 40  1  0  0  0
 18 41  1  0  0  0
 19 20  2  0  0  0
 19 21  1  0  0  0
 21 22  1  0  0  0
 21 42  1  0  0  0
 22 43  1  0  0  0
M  END
> <s_m_entry_id>
53593

> <s_m_entry_name>
ligand_docking-pose.86

> <s_m_Source_Path>
/home/csk/Desktop/cluster/DUD-E-result/hdac8

> <s_m_Source_File>
ligand_docking-pose.sdf

> <i_m_Source_File_Index>
86

> <i_lp_mmshare_version>
53161

> <r_lp_tautomer_probability>
1

> <s_lp_Force_Field>
OPLS_2005

> <r_lp_Energy>
15.857944

> <b_lp_Chiralities_Consistent>
1

> <s_lp_Variant>
86140-1

> <s_i_glide_gridfile>
glide-grid_3f07

> <i_i_glide_lignum>
77

> <i_i_glide_rotatable_bonds>
11

> <r_i_docking_score>
-7.41503521661574

> <r_i_glide_ligand_efficiency>
-0.337047055300715

> <r_i_glide_ligand_efficiency_sa>
-0.944419104261106

> <r_i_glide_ligand_efficiency_ln>
-1.81250507692209

> <r_i_glide_gscore>
-7.41503521661574

> <r_i_glide_lipo>
-1.08126755675684

> <r_i_glide_hbond>
-0.463050001586337

> <r_i_glide_metal>
-2.3

> <r_i_glide_rewards>
-1.46931138623344

> <r_i_glide_evdw>
-28.5680694580078

> <r_i_glide_ecoul>
-15.8191003799438

> <r_i_glide_erotb>
1.80205018371269

> <r_i_glide_esite>
-0.102187925859842

> <r_i_glide_emodel>
-66.5422709063445

> <r_i_glide_energy>
-44.3871698379517

> <r_i_glide_einternal>
6.80653238296509

> <i_i_glide_confnum>
1

> <i_i_glide_posenum>
371

> <r_i_glide_eff_state_penalty>
0

> <i_f3d_flags>
0

> <s_user_duplicate_titles>
86140

> <s_m_subgroup_title>
dock_pv

> <s_m_subgroupid>
dock_pv1

> <b_m_subgroup_collapsed>
0

$$$$
235551
                    3D
 Schrodinger Suite 2021-1.
 45 46  0  0  1  0            999 V2000
  -25.3712   31.6615  -48.0127 C   0  0  0  0  0  0
  -26.4435   31.2691  -47.2142 C   0  0  0  0  0  0
  -26.2138   30.8821  -45.8962 C   0  0  0  0  0  0
  -24.9153   30.8958  -45.3784 C   0  0  0  0  0  0
  -23.8440   31.2875  -46.1862 C   0  0  0  0  0  0
  -24.0727   31.6697  -47.5057 C   0  0  0  0  0  0
  -24.6661   30.4771  -43.9356 C   0  0  0  0  0  0
  -24.8600   31.6088  -42.9038 C   0  0  0  0  0  0
  -26.3184   32.1113  -42.8047 C   0  0  0  0  0  0
  -26.5732   33.0572  -41.7153 N   0  0  1  0  0  0
  -26.2251   32.5776  -40.3741 C   0  0  0  0  0  0
  -26.9098   31.2804  -39.9428 C   0  0  0  0  0  0
  -28.2131   30.9703  -40.3453 C   0  0  0  0  0  0
  -28.7871   29.7570  -39.9805 C   0  0  0  0  0  0
  -28.0646   28.8486  -39.2041 C   0  0  0  0  0  0
  -26.7772   29.1696  -38.7805 C   0  0  0  0  0  0
  -26.2033   30.3852  -39.1383 C   0  0  0  0  0  0
  -28.6304   27.5268  -38.9225 C   0  0  0  0  0  0
  -29.5214   27.2774  -37.9432 C   0  0  0  0  0  0
  -30.1723   26.0020  -37.8111 C   0  0  0  0  0  0
  -30.3784   25.2690  -38.7810 O   0  0  0  0  0  0
  -30.6232   25.7366  -36.5799 N   0  0  0  0  0  0
  -31.1798   24.4679  -36.3810 O   0  0  0  0  0  0
  -25.5491   31.9639  -49.0344 H   0  0  0  0  0  0
  -27.4473   31.2636  -47.6154 H   0  0  0  0  0  0
  -27.0454   30.5756  -45.2786 H   0  0  0  0  0  0
  -22.8364   31.2990  -45.7948 H   0  0  0  0  0  0
  -23.2471   31.9765  -48.1312 H   0  0  0  0  0  0
  -23.6510   30.0856  -43.8553 H   0  0  0  0  0  0
  -25.3117   29.6314  -43.6919 H   0  0  0  0  0  0
  -24.1940   32.4414  -43.1346 H   0  0  0  0  0  0
  -24.5352   31.2164  -41.9401 H   0  0  0  0  0  0
  -27.0012   31.2656  -42.7202 H   0  0  0  0  0  0
  -26.5937   32.6030  -43.7383 H   0  0  0  0  0  0
  -26.0773   33.9205  -41.8954 H   0  0  0  0  0  0
  -26.5362   33.3479  -39.6668 H   0  0  0  0  0  0
  -25.1448   32.5281  -40.2269 H   0  0  0  0  0  0
  -28.7664   31.6583  -40.9653 H   0  0  0  0  0  0
  -29.7825   29.5189  -40.3261 H   0  0  0  0  0  0
  -26.2130   28.4692  -38.1847 H   0  0  0  0  0  0
  -25.1992   30.6172  -38.8116 H   0  0  0  0  0  0
  -28.3058   26.7351  -39.5838 H   0  0  0  0  0  0
  -29.8002   28.0439  -37.2302 H   0  0  0  0  0  0
  -30.2982   26.1709  -35.7261 H   0  0  0  0  0  0
  -30.8312   23.9519  -37.1190 H   0  0  0  0  0  0
  1  6  1  0  0  0
  1  2  2  0  0  0
  1 24  1  0  0  0
  2  3  1  0  0  0
  2 25  1  0  0  0
  3  4  2  0  0  0
  3 26  1  0  0  0
  4  5  1  0  0  0
  4  7  1  0  0  0
  5  6  2  0  0  0
  5 27  1  0  0  0
  6 28  1  0  0  0
  7  8  1  0  0  0
  7 29  1  0  0  0
  7 30  1  0  0  0
  8  9  1  0  0  0
  8 31  1  0  0  0
  8 32  1  0  0  0
  9 10  1  0  0  0
  9 33  1  0  0  0
  9 34  1  0  0  0
 10 11  1  0  0  0
 10 35  1  0  0  0
 11 12  1  0  0  0
 11 36  1  0  0  0
 11 37  1  0  0  0
 12 17  1  0  0  0
 12 13  2  0  0  0
 13 14  1  0  0  0
 13 38  1  0  0  0
 14 15  2  0  0  0
 14 39  1  0  0  0
 15 16  1  0  0  0
 15 18  1  0  0  0
 16 17  2  0  0  0
 16 40  1  0  0  0
 17 41  1  0  0  0
 18 19  2  0  0  0
 18 42  1  0  0  0
 19 20  1  0  0  0
 19 43  1  0  0  0
 20 21  2  0  0  0
 20 22  1  0  0  0
 22 23  1  0  0  0
 22 44  1  0  0  0
 23 45  1  0  0  0
M  END
> <s_m_entry_id>
53595

> <s_m_entry_name>
ligand_docking-pose.88

> <s_m_Source_Path>
/home/csk/Desktop/cluster/DUD-E-result/hdac8

> <s_m_Source_File>
ligand_docking-pose.sdf

> <i_m_Source_File_Index>
88

> <i_lp_mmshare_version>
53161

> <r_lp_tautomer_probability>
1

> <s_lp_Force_Field>
OPLS_2005

> <r_lp_Energy>
21.63069

> <b_lp_Chiralities_Consistent>
1

> <s_lp_Variant>
235551-1

> <s_i_glide_gridfile>
glide-grid_3f07

> <i_i_glide_lignum>
128

> <i_i_glide_rotatable_bonds>
10

> <r_i_docking_score>
-7.4028997411279

> <r_i_glide_ligand_efficiency>
-0.321865206135996

> <r_i_glide_ligand_efficiency_sa>
-0.915341830736593

> <r_i_glide_ligand_efficiency_ln>
-1.79008828318833

> <r_i_glide_gscore>
-7.4028997411279

> <r_i_glide_lipo>
-1.56458437653204

> <r_i_glide_hbond>
0

> <r_i_glide_metal>
-2.3

> <r_i_glide_rewards>
-1.59793362940583

> <r_i_glide_evdw>
-38.2119331359863

> <r_i_glide_ecoul>
-9.78983402252197

> <r_i_glide_erotb>
1.53869002498758

> <r_i_glide_esite>
-0.1

> <r_i_glide_emodel>
-64.5653489029244

> <r_i_glide_energy>
-48.0017671585083

> <r_i_glide_einternal>
13.328426361084

> <i_i_glide_confnum>
41

> <i_i_glide_posenum>
136

> <r_i_glide_eff_state_penalty>
0

> <i_f3d_flags>
0

> <s_user_duplicate_titles>
235551

> <s_m_subgroup_title>
dock_pv

> <s_m_subgroupid>
dock_pv1

> <b_m_subgroup_collapsed>
0

$$$$
246104
                    3D
 Schrodinger Suite 2021-1.
 49 49  0  0  1  0            999 V2000
  -31.4130   24.1854  -36.5430 C   0  0  0  0  0  0
  -31.4834   25.7141  -36.6267 C   0  0  0  0  0  0
  -30.2164   26.2866  -36.9153 O   0  0  0  0  0  0
  -29.8130   26.4742  -38.1771 C   0  0  0  0  0  0
  -30.4086   26.0690  -39.1810 O   0  0  0  0  0  0
  -28.6914   27.2851  -38.1692 N   0  0  0  0  0  0
  -27.9772   27.6900  -39.3770 C   0  0  0  0  0  0
  -28.6823   28.7846  -40.2066 C   0  0  0  0  0  0
  -28.6975   30.4692  -39.5799 S   0  0  0  0  0  0
  -26.9081   31.2064  -40.2131 S   0  0  0  0  0  0
  -25.7334   30.8984  -38.8549 C   0  0  0  0  0  0
  -24.2388   31.0247  -39.2118 C   0  0  0  0  0  0
  -23.9537   32.2356  -39.9810 N   0  0  0  0  0  0
  -23.6473   32.2950  -41.2954 C   0  0  0  0  0  0
  -23.4382   31.2690  -41.9469 O   0  0  0  0  0  0
  -23.6071   33.6404  -41.9268 C   0  0  0  0  0  0
  -23.8335   34.6622  -41.1810 N   0  0  0  0  0  0
  -23.8245   35.8953  -41.8536 O   0  0  0  0  0  0
  -23.3256   33.6360  -43.4520 C   0  0  0  0  0  0
  -24.4274   33.0086  -44.3084 C   0  0  0  0  0  0
  -24.1670   31.8476  -45.0442 C   0  0  0  0  0  0
  -25.1686   31.2690  -45.8219 C   0  0  0  0  0  0
  -26.4352   31.8475  -45.8794 C   0  0  0  0  0  0
  -26.7065   33.0069  -45.1449 C   0  0  0  0  0  0
  -25.7022   33.5850  -44.3649 C   0  0  0  0  0  0
  -28.4346   33.8122  -45.1909 Br  0  0  0  0  0  0
  -27.3981   31.2690  -46.6626 O   0  0  0  0  0  0
  -32.3991   23.7551  -36.3810 H   0  0  0  0  0  0
  -31.0147   23.7495  -37.4591 H   0  0  0  0  0  0
  -30.7802   23.8804  -35.7108 H   0  0  0  0  0  0
  -31.8092   26.1195  -35.6705 H   0  0  0  0  0  0
  -32.2310   26.0254  -37.3581 H   0  0  0  0  0  0
  -28.3474   27.5957  -37.2670 H   0  0  0  0  0  0
  -27.7905   26.8032  -39.9810 H   0  0  0  0  0  0
  -26.9873   28.0359  -39.0847 H   0  0  0  0  0  0
  -29.7188   28.5031  -40.3810 H   0  0  0  0  0  0
  -28.2052   28.8690  -41.1810 H   0  0  0  0  0  0
  -25.9260   29.9225  -38.4133 H   0  0  0  0  0  0
  -25.9639   31.6300  -38.0790 H   0  0  0  0  0  0
  -23.9226   30.1287  -39.7506 H   0  0  0  0  0  0
  -23.6383   31.0462  -38.3011 H   0  0  0  0  0  0
  -24.0777   33.1095  -39.4763 H   0  0  0  0  0  0
  -23.9771   36.5154  -41.1347 H   0  0  0  0  0  0
  -22.3810   33.1207  -43.6357 H   0  0  0  0  0  0
  -23.1509   34.6412  -43.8343 H   0  0  0  0  0  0
  -23.1908   31.3853  -45.0068 H   0  0  0  0  0  0
  -24.9602   30.3707  -46.3809 H   0  0  0  0  0  0
  -25.9137   34.4809  -43.7984 H   0  0  0  0  0  0
  -28.2134   31.7755  -46.6638 H   0  0  0  0  0  0
  1  2  1  0  0  0
  1 28  1  0  0  0
  1 29  1  0  0  0
  1 30  1  0  0  0
  2  3  1  0  0  0
  2 31  1  0  0  0
  2 32  1  0  0  0
  3  4  1  0  0  0
  4  5  2  0  0  0
  4  6  1  0  0  0
  6  7  1  0  0  0
  6 33  1  0  0  0
  7  8  1  0  0  0
  7 34  1  0  0  0
  7 35  1  0  0  0
  8  9  1  0  0  0
  8 36  1  0  0  0
  8 37  1  0  0  0
  9 10  1  0  0  0
 10 11  1  0  0  0
 11 12  1  0  0  0
 11 38  1  0  0  0
 11 39  1  0  0  0
 12 13  1  0  0  0
 12 40  1  0  0  0
 12 41  1  0  0  0
 13 14  1  0  0  0
 13 42  1  0  0  0
 14 15  2  0  0  0
 14 16  1  0  0  0
 16 17  2  0  0  0
 16 19  1  0  0  0
 17 18  1  0  0  0
 18 43  1  0  0  0
 19 20  1  0  0  0
 19 44  1  0  0  0
 19 45  1  0  0  0
 20 25  1  0  0  0
 20 21  2  0  0  0
 21 22  1  0  0  0
 21 46  1  0  0  0
 22 23  2  0  0  0
 22 47  1  0  0  0
 23 24  1  0  0  0
 23 27  1  0  0  0
 24 25  2  0  0  0
 24 26  1  0  0  0
 25 48  1  0  0  0
 27 49  1  0  0  0
M  END
> <s_m_entry_id>
53596

> <s_m_entry_name>
ligand_docking-pose.89

> <s_m_Source_Path>
/home/csk/Desktop/cluster/DUD-E-result/hdac8

> <s_m_Source_File>
ligand_docking-pose.sdf

> <i_m_Source_File_Index>
89

> <i_lp_mmshare_version>
53161

> <r_lp_tautomer_probability>
0.999999999997365

> <s_lp_Force_Field>
OPLS_2005

> <r_lp_Energy>
-0.005795

> <b_lp_Chiralities_Consistent>
1

> <s_lp_Variant>
246104-1

> <s_i_glide_gridfile>
glide-grid_3f07

> <i_i_glide_lignum>
333

> <i_i_glide_rotatable_bonds>
16

> <r_i_docking_score>
-7.39111532477371

> <r_i_glide_ligand_efficiency>
-0.273745012028656

> <r_i_glide_ligand_efficiency_sa>
-0.821235035183749

> <r_i_glide_ligand_efficiency_ln>
-1.72052979554794

> <r_i_glide_gscore>
-7.39111532477371

> <r_i_glide_lipo>
-1.3111021461237

> <r_i_glide_hbond>
-0.56708019919048

> <r_i_glide_metal>
-2.3

> <r_i_glide_rewards>
-0.264468164939039

> <r_i_glide_evdw>
-35.9545211791992

> <r_i_glide_ecoul>
-13.7780284881592

> <r_i_glide_erotb>
1.23017076806821

> <r_i_glide_esite>
-0.31420525040487

> <r_i_glide_emodel>
-75.207502927554

> <r_i_glide_energy>
-49.7325496673584

> <r_i_glide_einternal>
5.82673788070679

> <i_i_glide_confnum>
362

> <i_i_glide_posenum>
372

> <r_i_glide_eff_state_penalty>
0

> <i_f3d_flags>
0

> <s_user_duplicate_titles>
246104

> <s_m_subgroup_title>
dock_pv

> <s_m_subgroupid>
dock_pv1

> <b_m_subgroup_collapsed>
0

$$$$
87007
                    3D
 Schrodinger Suite 2021-1.
 43 44  0  0  1  0            999 V2000
  -28.6759   34.4689  -47.6145 C   0  0  0  0  0  0
  -28.3778   34.2880  -46.2624 C   0  0  0  0  0  0
  -27.5810   33.1856  -45.9344 C   0  0  0  0  0  0
  -27.0876   32.2856  -46.9214 C   0  0  0  0  0  0
  -27.4130   32.5062  -48.2672 C   0  0  0  0  0  0
  -28.2124   33.5976  -48.5970 C   0  0  0  0  0  0
  -28.5440   33.8121  -49.8897 F   0  0  0  0  0  0
  -26.3206   31.2992  -46.2270 C   0  0  0  0  0  0
  -26.3802   31.5669  -44.8665 C   0  0  0  0  0  0
  -27.1210   32.7240  -44.7183 N   0  0  0  0  0  0
  -25.8130   30.7866  -43.7863 C   0  0  0  0  0  0
  -25.3954   29.6435  -43.9821 O   0  0  0  0  0  0
  -25.8402   31.3664  -42.5703 N   0  0  0  0  0  0
  -25.3886   30.7150  -41.3405 C   0  0  0  0  0  0
  -26.3779   29.6690  -40.7857 C   0  0  0  0  0  0
  -27.6709   30.2701  -40.1940 C   0  0  0  0  0  0
  -28.7295   29.2439  -39.7281 C   0  0  0  0  0  0
  -28.1690   28.0662  -38.8972 C   0  0  0  0  0  0
  -29.1543   27.4254  -37.8935 C   0  0  0  0  0  0
  -30.1480   26.3863  -38.3995 C   0  0  0  0  0  0
  -30.6130   26.4690  -39.5431 O   0  0  0  0  0  0
  -30.4993   25.4487  -37.5047 N   0  0  0  0  0  0
  -31.4130   24.4690  -37.8851 O   0  0  0  0  0  0
  -27.3112   33.1290  -43.8151 H   0  0  0  0  0  0
  -29.2989   35.2993  -47.9134 H   0  0  0  0  0  0
  -28.7543   34.9687  -45.5131 H   0  0  0  0  0  0
  -27.0676   31.8367  -49.0394 H   0  0  0  0  0  0
  -25.7922   30.4690  -46.6639 H   0  0  0  0  0  0
  -26.0257   32.3543  -42.5065 H   0  0  0  0  0  0
  -25.2570   31.5034  -40.5971 H   0  0  0  0  0  0
  -24.3964   30.2786  -41.4689 H   0  0  0  0  0  0
  -25.8598   29.1181  -40.0019 H   0  0  0  0  0  0
  -26.6130   28.9334  -41.5556 H   0  0  0  0  0  0
  -28.1314   30.9355  -40.9256 H   0  0  0  0  0  0
  -27.3995   30.9021  -39.3467 H   0  0  0  0  0  0
  -29.2772   28.8690  -40.5912 H   0  0  0  0  0  0
  -29.4624   29.7884  -39.1326 H   0  0  0  0  0  0
  -27.3344   28.4410  -38.3017 H   0  0  0  0  0  0
  -27.7350   27.3087  -39.5532 H   0  0  0  0  0  0
  -29.6781   28.1874  -37.3140 H   0  0  0  0  0  0
  -28.5638   26.8690  -37.1810 H   0  0  0  0  0  0
  -30.1573   25.3338  -36.5593 H   0  0  0  0  0  0
  -30.8819   23.6625  -37.9418 H   0  0  0  0  0  0
  1  6  1  0  0  0
  1  2  2  0  0  0
  1 25  1  0  0  0
  2  3  1  0  0  0
  2 26  1  0  0  0
  3 10  1  0  0  0
  3  4  2  0  0  0
  4  5  1  0  0  0
  4  8  1  0  0  0
  5  6  2  0  0  0
  5 27  1  0  0  0
  6  7  1  0  0  0
  8  9  2  0  0  0
  8 28  1  0  0  0
  9 10  1  0  0  0
  9 11  1  0  0  0
 10 24  1  0  0  0
 11 12  2  0  0  0
 11 13  1  0  0  0
 13 14  1  0  0  0
 13 29  1  0  0  0
 14 15  1  0  0  0
 14 30  1  0  0  0
 14 31  1  0  0  0
 15 16  1  0  0  0
 15 32  1  0  0  0
 15 33  1  0  0  0
 16 17  1  0  0  0
 16 34  1  0  0  0
 16 35  1  0  0  0
 17 18  1  0  0  0
 17 36  1  0  0  0
 17 37  1  0  0  0
 18 19  1  0  0  0
 18 38  1  0  0  0
 18 39  1  0  0  0
 19 20  1  0  0  0
 19 40  1  0  0  0
 19 41  1  0  0  0
 20 21  2  0  0  0
 20 22  1  0  0  0
 22 23  1  0  0  0
 22 42  1  0  0  0
 23 43  1  0  0  0
M  END
> <s_m_entry_id>
53597

> <s_m_entry_name>
ligand_docking-pose.90

> <s_m_Source_Path>
/home/csk/Desktop/cluster/DUD-E-result/hdac8

> <s_m_Source_File>
ligand_docking-pose.sdf

> <i_m_Source_File_Index>
90

> <i_lp_mmshare_version>
53161

> <r_lp_tautomer_probability>
1

> <s_lp_Force_Field>
OPLS_2005

> <r_lp_Energy>
15.990125

> <b_lp_Chiralities_Consistent>
1

> <s_lp_Variant>
87007-1

> <s_i_glide_gridfile>
glide-grid_3f07

> <i_i_glide_lignum>
3

> <i_i_glide_rotatable_bonds>
11

> <r_i_docking_score>
-7.3662228645914

> <r_i_glide_ligand_efficiency>
-0.320270559330061

> <r_i_glide_ligand_efficiency_sa>
-0.910806867345408

> <r_i_glide_ligand_efficiency_ln>
-1.78121948187428

> <r_i_glide_gscore>
-7.3662228645914

> <r_i_glide_lipo>
-1.22059381380348

> <r_i_glide_hbond>
-0.307821578225114

> <r_i_glide_metal>
-2.3

> <r_i_glide_rewards>
-1.33885587979049

> <r_i_glide_evdw>
-24.5674991607666

> <r_i_glide_ecoul>
-16.4855651855469

> <r_i_glide_erotb>
1.62852768289911

> <r_i_glide_esite>
-0.126269539801067

> <r_i_glide_emodel>
-60.1575631189067

> <r_i_glide_energy>
-41.0530643463135

> <r_i_glide_einternal>
7.24168348312378

> <i_i_glide_confnum>
2

> <i_i_glide_posenum>
20

> <r_i_glide_eff_state_penalty>
0

> <i_f3d_flags>
0

> <s_user_duplicate_titles>
87007

> <s_m_subgroup_title>
dock_pv

> <s_m_subgroupid>
dock_pv1

> <b_m_subgroup_collapsed>
0

$$$$
235692
                    3D
 Schrodinger Suite 2021-1.
 57 59  0  0  1  0            999 V2000
  -23.0418   31.7909  -48.3801 C   0  0  0  0  0  0
  -24.3355   32.0564  -48.8234 C   0  0  0  0  0  0
  -25.4179   31.7963  -47.9872 C   0  0  0  0  0  0
  -25.2039   31.2691  -46.7102 C   0  0  0  0  0  0
  -23.9028   31.0074  -46.2705 C   0  0  0  0  0  0
  -22.8209   31.2707  -47.1070 C   0  0  0  0  0  0
  -26.3961   30.9596  -45.8130 C   0  0  0  0  0  0
  -26.6495   32.0170  -44.7225 C   0  0  0  0  0  0
  -25.6931   31.9102  -43.5132 C   0  0  0  0  0  0
  -26.1728   32.7272  -42.3957 N   0  0  1  0  0  0
  -25.6011   32.2662  -41.1199 C   0  0  0  0  0  0
  -26.3181   31.0685  -40.5021 C   0  0  0  0  0  0
  -25.7038   30.4107  -39.4382 C   0  0  0  0  0  0
  -26.3611   29.3718  -38.7886 C   0  0  0  0  0  0
  -27.6391   28.9752  -39.1864 C   0  0  0  0  0  0
  -28.2728   29.6700  -40.2238 C   0  0  0  0  0  0
  -27.6230   30.7177  -40.8642 C   0  0  0  0  0  0
  -28.2842   27.8474  -38.4855 C   0  0  0  0  0  0
  -29.4133   27.2283  -38.8859 C   0  0  0  0  0  0
  -30.0880   26.1827  -38.1581 C   0  0  0  0  0  0
  -30.6205   25.2689  -38.7810 O   0  0  0  0  0  0
  -30.1904   26.3565  -36.8289 N   0  0  0  0  0  0
  -30.8856   25.3900  -36.0888 O   0  0  0  0  0  0
  -25.9222   34.1569  -42.6054 C   0  0  0  0  0  0
  -27.0021   34.9831  -41.9262 C   0  0  0  0  0  0
  -26.9093   35.3393  -40.5765 C   0  0  0  0  0  0
  -27.9384   36.0690  -39.9877 C   0  0  0  0  0  0
  -29.0129   36.4690  -40.7817 C   0  0  0  0  0  0
  -29.1347   36.1236  -42.0879 N   0  0  0  0  0  0
  -28.1370   35.3864  -42.6392 C   0  0  0  0  0  0
  -22.2013   31.9938  -49.0276 H   0  0  0  0  0  0
  -24.4982   32.4646  -49.8102 H   0  0  0  0  0  0
  -26.4206   32.0016  -48.3346 H   0  0  0  0  0  0
  -23.7282   30.5941  -45.2882 H   0  0  0  0  0  0
  -21.8131   31.0704  -46.7726 H   0  0  0  0  0  0
  -26.2707   29.9743  -45.3629 H   0  0  0  0  0  0
  -27.2882   30.8685  -46.4358 H   0  0  0  0  0  0
  -27.6838   31.9682  -44.3813 H   0  0  0  0  0  0
  -26.5465   32.9945  -45.1944 H   0  0  0  0  0  0
  -24.6821   32.2130  -43.7922 H   0  0  0  0  0  0
  -25.6100   30.8613  -43.2227 H   0  0  0  0  0  0
  -25.7216   33.0387  -40.3649 H   0  0  0  0  0  0
  -24.5240   32.1003  -41.1901 H   0  0  0  0  0  0
  -24.7157   30.7030  -39.1104 H   0  0  0  0  0  0
  -25.8544   28.8688  -37.9810 H   0  0  0  0  0  0
  -29.2741   29.4245  -40.5417 H   0  0  0  0  0  0
  -28.1382   31.2533  -41.6457 H   0  0  0  0  0  0
  -27.7964   27.5228  -37.5811 H   0  0  0  0  0  0
  -29.8799   27.4972  -39.8185 H   0  0  0  0  0  0
  -29.7342   27.0583  -36.2556 H   0  0  0  0  0  0
  -30.1914   24.9092  -35.6282 H   0  0  0  0  0  0
  -24.9260   34.4471  -42.2644 H   0  0  0  0  0  0
  -25.9410   34.4244  -43.6622 H   0  0  0  0  0  0
  -26.0487   35.0694  -39.9809 H   0  0  0  0  0  0
  -27.8735   36.3635  -38.9504 H   0  0  0  0  0  0
  -29.7987   37.0871  -40.3725 H   0  0  0  0  0  0
  -28.2589   35.1235  -43.6802 H   0  0  0  0  0  0
  1  6  1  0  0  0
  1  2  2  0  0  0
  1 31  1  0  0  0
  2  3  1  0  0  0
  2 32  1  0  0  0
  3  4  2  0  0  0
  3 33  1  0  0  0
  4  5  1  0  0  0
  4  7  1  0  0  0
  5  6  2  0  0  0
  5 34  1  0  0  0
  6 35  1  0  0  0
  7  8  1  0  0  0
  7 36  1  0  0  0
  7 37  1  0  0  0
  8  9  1  0  0  0
  8 38  1  0  0  0
  8 39  1  0  0  0
  9 10  1  0  0  0
  9 40  1  0  0  0
  9 41  1  0  0  0
 10 11  1  0  0  0
 10 24  1  0  0  0
 11 12  1  0  0  0
 11 42  1  0  0  0
 11 43  1  0  0  0
 12 17  1  0  0  0
 12 13  2  0  0  0
 13 14  1  0  0  0
 13 44  1  0  0  0
 14 15  2  0  0  0
 14 45  1  0  0  0
 15 16  1  0  0  0
 15 18  1  0  0  0
 16 17  2  0  0  0
 16 46  1  0  0  0
 17 47  1  0  0  0
 18 19  2  0  0  0
 18 48  1  0  0  0
 19 20  1  0  0  0
 19 49  1  0  0  0
 20 21  2  0  0  0
 20 22  1  0  0  0
 22 23  1  0  0  0
 22 50  1  0  0  0
 23 51  1  0  0  0
 24 25  1  0  0  0
 24 52  1  0  0  0
 24 53  1  0  0  0
 25 30  1  0  0  0
 25 26  2  0  0  0
 26 27  1  0  0  0
 26 54  1  0  0  0
 27 28  2  0  0  0
 27 55  1  0  0  0
 28 29  1  0  0  0
 28 56  1  0  0  0
 29 30  2  0  0  0
 30 57  1  0  0  0
M  END
> <s_m_entry_id>
53598

> <s_m_entry_name>
ligand_docking-pose.91

> <s_m_Source_Path>
/home/csk/Desktop/cluster/DUD-E-result/hdac8

> <s_m_Source_File>
ligand_docking-pose.sdf

> <i_m_Source_File_Index>
91

> <i_lp_mmshare_version>
53161

> <r_lp_tautomer_probability>
1

> <s_lp_Force_Field>
OPLS_2005

> <r_lp_Energy>
33.426611

> <b_lp_Chiralities_Consistent>
1

> <s_lp_Variant>
235692-1

> <s_i_glide_gridfile>
glide-grid_3f07

> <i_i_glide_lignum>
130

> <i_i_glide_rotatable_bonds>
12

> <r_i_docking_score>
-7.3563422489847

> <r_i_glide_ligand_efficiency>
-0.24521140829949

> <r_i_glide_ligand_efficiency_sa>
-0.761928857835076

> <r_i_glide_ligand_efficiency_ln>
-1.67144111273794

> <r_i_glide_gscore>
-7.3563422489847

> <r_i_glide_lipo>
-1.43867514486199

> <r_i_glide_hbond>
-0.314025744211143

> <r_i_glide_metal>
-2.3

> <r_i_glide_rewards>
-0.857340843449926

> <r_i_glide_evdw>
-36.6843910217285

> <r_i_glide_ecoul>
-10.7144861221313

> <r_i_glide_erotb>
1.09509195294449

> <r_i_glide_esite>
-0.1

> <r_i_glide_emodel>
-67.2337044360922

> <r_i_glide_energy>
-47.3988771438599

> <r_i_glide_einternal>
10.7840375900269

> <i_i_glide_confnum>
6

> <i_i_glide_posenum>
70

> <r_i_glide_eff_state_penalty>
0

> <i_f3d_flags>
0

> <s_user_duplicate_titles>
235692

> <s_m_subgroup_title>
dock_pv

> <s_m_subgroupid>
dock_pv1

> <b_m_subgroup_collapsed>
0

$$$$
246102
                    3D
 Schrodinger Suite 2021-1.
 46 46  0  0  1  0            999 V2000
  -22.7575   31.5945  -46.8326 C   0  0  0  0  0  0
  -23.3823   31.8789  -48.0479 C   0  0  0  0  0  0
  -24.7627   31.7180  -48.1835 C   0  0  0  0  0  0
  -25.5208   31.2699  -47.0964 C   0  0  0  0  0  0
  -24.8896   30.9645  -45.8928 C   0  0  0  0  0  0
  -23.5082   31.1347  -45.7459 C   0  0  0  0  0  0
  -22.8289   30.8122  -44.4148 C   0  0  0  0  0  0
  -22.8734   31.9529  -43.3680 C   0  0  0  0  0  0
  -21.9104   32.5856  -42.8160 N   0  0  0  0  0  0
  -20.6208   32.1959  -43.2360 O   0  0  0  0  0  0
  -24.2107   32.3758  -42.9648 C   0  0  0  0  0  0
  -24.6252   33.5270  -43.1140 O   0  0  0  0  0  0
  -24.9766   31.3702  -42.4998 N   0  0  0  0  0  0
  -26.4229   31.4391  -42.3371 C   0  0  0  0  0  0
  -26.8764   32.1166  -41.0405 C   0  0  0  0  0  0
  -28.6130   31.7552  -40.6855 S   0  0  0  0  0  0
  -28.5710   30.3952  -39.1808 S   0  0  0  0  0  0
  -28.0943   28.8302  -39.9398 C   0  0  0  0  0  0
  -27.6906   27.7009  -38.9745 C   0  0  0  0  0  0
  -28.7031   27.2691  -38.0049 N   0  0  0  0  0  0
  -29.8130   26.5696  -38.3262 C   0  0  0  0  0  0
  -30.2130   26.4690  -39.4922 O   0  0  0  0  0  0
  -30.5987   25.9666  -37.2053 C   0  0  0  0  0  0
  -31.4130   25.0706  -37.4110 O   0  0  0  0  0  0
  -30.4143   26.4689  -35.9809 N   0  0  0  0  0  0
  -27.4126   31.0656  -47.2132 Br  0  0  0  0  0  0
  -25.3560   32.0024  -49.3849 O   0  0  0  0  0  0
  -21.6884   31.7264  -46.7399 H   0  0  0  0  0  0
  -22.7879   32.2283  -48.8793 H   0  0  0  0  0  0
  -25.4878   30.6053  -45.0696 H   0  0  0  0  0  0
  -23.3093   29.9257  -44.0027 H   0  0  0  0  0  0
  -21.8130   30.4844  -44.6112 H   0  0  0  0  0  0
  -20.7878   31.5351  -43.9113 H   0  0  0  0  0  0
  -24.5536   30.4655  -42.3630 H   0  0  0  0  0  0
  -26.8860   31.9298  -43.1972 H   0  0  0  0  0  0
  -26.7863   30.4121  -42.3629 H   0  0  0  0  0  0
  -26.2712   31.7777  -40.1981 H   0  0  0  0  0  0
  -26.7306   33.1957  -41.1054 H   0  0  0  0  0  0
  -28.9352   28.5173  -40.5497 H   0  0  0  0  0  0
  -27.2652   29.0193  -40.6191 H   0  0  0  0  0  0
  -27.3450   26.8363  -39.5455 H   0  0  0  0  0  0
  -26.8278   28.0466  -38.4030 H   0  0  0  0  0  0
  -28.4425   27.3779  -37.0271 H   0  0  0  0  0  0
  -30.9457   26.0827  -35.2141 H   0  0  0  0  0  0
  -29.7293   27.1921  -35.7930 H   0  0  0  0  0  0
  -24.7464   32.3791  -50.0225 H   0  0  0  0  0  0
  1  6  1  0  0  0
  1  2  2  0  0  0
  1 28  1  0  0  0
  2  3  1  0  0  0
  2 29  1  0  0  0
  3  4  2  0  0  0
  3 27  1  0  0  0
  4  5  1  0  0  0
  4 26  1  0  0  0
  5  6  2  0  0  0
  5 30  1  0  0  0
  6  7  1  0  0  0
  7  8  1  0  0  0
  7 31  1  0  0  0
  7 32  1  0  0  0
  8  9  2  0  0  0
  8 11  1  0  0  0
  9 10  1  0  0  0
 10 33  1  0  0  0
 11 12  2  0  0  0
 11 13  1  0  0  0
 13 14  1  0  0  0
 13 34  1  0  0  0
 14 15  1  0  0  0
 14 35  1  0  0  0
 14 36  1  0  0  0
 15 16  1  0  0  0
 15 37  1  0  0  0
 15 38  1  0  0  0
 16 17  1  0  0  0
 17 18  1  0  0  0
 18 19  1  0  0  0
 18 39  1  0  0  0
 18 40  1  0  0  0
 19 20  1  0  0  0
 19 41  1  0  0  0
 19 42  1  0  0  0
 20 21  1  0  0  0
 20 43  1  0  0  0
 21 22  2  0  0  0
 21 23  1  0  0  0
 23 24  2  0  0  0
 23 25  1  0  0  0
 25 44  1  0  0  0
 25 45  1  0  0  0
 27 46  1  0  0  0
M  END
> <s_m_entry_id>
53599

> <s_m_entry_name>
ligand_docking-pose.92

> <s_m_Source_Path>
/home/csk/Desktop/cluster/DUD-E-result/hdac8

> <s_m_Source_File>
ligand_docking-pose.sdf

> <i_m_Source_File_Index>
92

> <i_lp_mmshare_version>
53161

> <r_lp_tautomer_probability>
0.999999999997365

> <s_lp_Force_Field>
OPLS_2005

> <r_lp_Energy>
1.476013

> <b_lp_Chiralities_Consistent>
1

> <s_lp_Variant>
246102-1

> <s_i_glide_gridfile>
glide-grid_3f07

> <i_i_glide_lignum>
152

> <i_i_glide_rotatable_bonds>
15

> <r_i_docking_score>
-7.35567668230937

> <r_i_glide_ligand_efficiency>
-0.272432469715162

> <r_i_glide_ligand_efficiency_sa>
-0.817297408247592

> <r_i_glide_ligand_efficiency_ln>
-1.71228026383392

> <r_i_glide_gscore>
-7.35567668230937

> <r_i_glide_lipo>
-0.789415144157245

> <r_i_glide_hbond>
-0.864

> <r_i_glide_metal>
-2.3

> <r_i_glide_rewards>
-0.226271905879409

> <r_i_glide_evdw>
-30.2463397979736

> <r_i_glide_ecoul>
-17.5166091918945

> <r_i_glide_erotb>
1.14678145506555

> <r_i_glide_esite>
-0.182962718655401

> <r_i_glide_emodel>
-63.8328805844813

> <r_i_glide_energy>
-47.7629489898682

> <r_i_glide_einternal>
19.0710582733154

> <i_i_glide_confnum>
138

> <i_i_glide_posenum>
184

> <r_i_glide_eff_state_penalty>
0

> <i_f3d_flags>
0

> <s_user_duplicate_titles>
246102

> <s_m_subgroup_title>
dock_pv

> <s_m_subgroupid>
dock_pv1

> <b_m_subgroup_collapsed>
0

$$$$
132388
                    3D
 Schrodinger Suite 2021-1.
 43 44  0  0  1  0            999 V2000
  -26.4666   30.1682  -38.2237 C   0  0  0  0  0  0
  -27.3113   29.3735  -39.2024 C   0  0  0  0  0  0
  -27.1318   29.4456  -40.5451 C   0  0  0  0  0  0
  -26.1216   30.1915  -41.3400 C   0  0  0  0  0  0
  -24.8624   30.5592  -40.8502 C   0  0  0  0  0  0
  -23.9665   31.2690  -41.6450 C   0  0  0  0  0  0
  -24.2991   31.5966  -42.9619 C   0  0  0  0  0  0
  -25.5501   31.2316  -43.4571 C   0  0  0  0  0  0
  -26.4512   30.5412  -42.6516 C   0  0  0  0  0  0
  -23.4311   32.2689  -43.8357 N   0  0  0  0  0  0
  -22.0170   33.2224  -43.3468 S   0  0  0  0  0  0
  -21.2103   32.4139  -42.4259 O   0  0  0  0  0  0
  -21.4452   33.7381  -44.5952 O   0  0  0  0  0  0
  -22.6925   34.6214  -42.4561 C   0  0  0  0  0  0
  -23.1545   35.7316  -43.1677 C   0  0  0  0  0  0
  -23.7014   36.8138  -42.4830 C   0  0  0  0  0  0
  -23.7890   36.7778  -41.0929 C   0  0  0  0  0  0
  -23.3361   35.6690  -40.3810 C   0  0  0  0  0  0
  -22.7859   34.5871  -41.0619 C   0  0  0  0  0  0
  -28.3944   28.5596  -38.6587 C   0  0  0  0  0  0
  -28.6249   27.2615  -38.9543 C   0  0  0  0  0  0
  -29.7507   26.5348  -38.4203 C   0  0  0  0  0  0
  -30.6014   26.0690  -39.1810 O   0  0  0  0  0  0
  -29.8130   26.4690  -37.0815 N   0  0  0  0  0  0
  -30.9109   25.8231  -36.4915 O   0  0  0  0  0  0
  -27.0130   30.3745  -37.3097 H   0  0  0  0  0  0
  -25.5503   29.6306  -37.9810 H   0  0  0  0  0  0
  -26.2117   31.1521  -38.6188 H   0  0  0  0  0  0
  -27.8129   28.8690  -41.1528 H   0  0  0  0  0  0
  -24.5328   30.2780  -39.8638 H   0  0  0  0  0  0
  -23.0102   31.5171  -41.2177 H   0  0  0  0  0  0
  -25.8322   31.4789  -44.4704 H   0  0  0  0  0  0
  -27.4130   30.2786  -43.0607 H   0  0  0  0  0  0
  -23.7803   32.4707  -44.7589 H   0  0  0  0  0  0
  -23.0895   35.7581  -44.2460 H   0  0  0  0  0  0
  -24.0569   37.6768  -43.0266 H   0  0  0  0  0  0
  -24.2130   37.6162  -40.5597 H   0  0  0  0  0  0
  -23.4130   35.6417  -39.3019 H   0  0  0  0  0  0
  -22.4381   33.7321  -40.4995 H   0  0  0  0  0  0
  -29.0731   29.0568  -37.9810 H   0  0  0  0  0  0
  -27.9752   26.7045  -39.6133 H   0  0  0  0  0  0
  -29.1674   26.8777  -36.4092 H   0  0  0  0  0  0
  -31.4116   26.5391  -36.0896 H   0  0  0  0  0  0
  1  2  1  0  0  0
  1 26  1  0  0  0
  1 27  1  0  0  0
  1 28  1  0  0  0
  2  3  2  0  0  0
  2 20  1  0  0  0
  3  4  1  0  0  0
  3 29  1  0  0  0
  4  9  1  0  0  0
  4  5  2  0  0  0
  5  6  1  0  0  0
  5 30  1  0  0  0
  6  7  2  0  0  0
  6 31  1  0  0  0
  7  8  1  0  0  0
  7 10  1  0  0  0
  8  9  2  0  0  0
  8 32  1  0  0  0
  9 33  1  0  0  0
 10 11  1  0  0  0
 10 34  1  0  0  0
 11 12  2  0  0  0
 11 13  2  0  0  0
 11 14  1  0  0  0
 14 19  1  0  0  0
 14 15  2  0  0  0
 15 16  1  0  0  0
 15 35  1  0  0  0
 16 17  2  0  0  0
 16 36  1  0  0  0
 17 18  1  0  0  0
 17 37  1  0  0  0
 18 19  2  0  0  0
 18 38  1  0  0  0
 19 39  1  0  0  0
 20 21  2  0  0  0
 20 40  1  0  0  0
 21 22  1  0  0  0
 21 41  1  0  0  0
 22 23  2  0  0  0
 22 24  1  0  0  0
 24 25  1  0  0  0
 24 42  1  0  0  0
 25 43  1  0  0  0
M  END
> <s_m_entry_id>
53602

> <s_m_entry_name>
ligand_docking-pose.95

> <s_m_Source_Path>
/home/csk/Desktop/cluster/DUD-E-result/hdac8

> <s_m_Source_File>
ligand_docking-pose.sdf

> <i_m_Source_File_Index>
95

> <i_lp_mmshare_version>
53161

> <r_lp_tautomer_probability>
1

> <s_lp_Force_Field>
OPLS_2005

> <r_lp_Energy>
25.471313

> <b_lp_Chiralities_Consistent>
1

> <s_lp_Variant>
132388-1

> <s_i_glide_gridfile>
glide-grid_3f07

> <i_i_glide_lignum>
261

> <i_i_glide_rotatable_bonds>
8

> <r_i_docking_score>
-7.3331449250637

> <r_i_glide_ligand_efficiency>
-0.293325797002548

> <r_i_glide_ligand_efficiency_sa>
-0.857689832590611

> <r_i_glide_ligand_efficiency_ln>
-1.73817510386023

> <r_i_glide_gscore>
-7.3331449250637

> <r_i_glide_lipo>
-1.11682352053717

> <r_i_glide_hbond>
-0.528696208355659

> <r_i_glide_metal>
-2.3

> <r_i_glide_rewards>
-0.990612150887164

> <r_i_glide_evdw>
-23.7640991210938

> <r_i_glide_ecoul>
-13.9864940643311

> <r_i_glide_erotb>
1.04381727964258

> <r_i_glide_esite>
-0.154651259221953

> <r_i_glide_emodel>
-55.841239439195

> <r_i_glide_energy>
-37.7505931854248

> <r_i_glide_einternal>
7.6830358505249

> <i_i_glide_confnum>
28

> <i_i_glide_posenum>
319

> <r_i_glide_eff_state_penalty>
0

> <i_f3d_flags>
0

> <s_user_duplicate_titles>
132388

> <s_m_subgroup_title>
dock_pv

> <s_m_subgroupid>
dock_pv1

> <b_m_subgroup_collapsed>
0

$$$$
331364
                    3D
 Schrodinger Suite 2021-1.
 39 40  0  0  1  0            999 V2000
  -19.7302   30.8690  -40.4876 C   0  0  0  0  0  0
  -20.6667   31.3023  -39.5509 C   0  0  0  0  0  0
  -21.8387   31.9189  -39.9809 C   0  0  0  0  0  0
  -22.0717   32.0963  -41.3477 C   0  0  0  0  0  0
  -21.1228   31.6690  -42.2818 C   0  0  0  0  0  0
  -19.9523   31.0501  -41.8513 C   0  0  0  0  0  0
  -23.3543   32.7675  -41.8193 C   0  0  0  0  0  0
  -24.4973   31.7812  -41.9863 C   0  0  0  0  0  0
  -24.7030   31.0123  -43.0826 C   0  0  0  0  0  0
  -25.8130   30.0622  -43.1522 C   0  0  0  0  0  0
  -26.6414   30.0025  -42.0130 N   0  0  0  0  0  0
  -26.4367   30.7810  -41.0162 C   0  0  0  0  0  0
  -25.3899   31.6853  -40.9353 N   0  0  0  0  0  0
  -27.5009   30.7868  -39.5810 S   0  0  0  0  0  0
  -27.3572   29.0640  -39.0152 C   0  0  0  0  0  0
  -28.5690   28.1365  -39.2664 C   0  0  0  0  0  0
  -29.0126   27.4087  -37.9810 C   0  0  0  0  0  0
  -30.0202   26.2622  -38.1148 C   0  0  0  0  0  0
  -30.6115   26.0690  -39.1807 O   0  0  0  0  0  0
  -30.2157   25.5248  -37.0108 N   0  0  0  0  0  0
  -31.1340   24.4691  -37.0767 O   0  0  0  0  0  0
  -25.9084   29.3957  -44.1764 O   0  0  0  0  0  0
  -18.8212   30.3914  -40.1525 H   0  0  0  0  0  0
  -20.4862   31.1650  -38.4948 H   0  0  0  0  0  0
  -22.5601   32.2593  -39.2507 H   0  0  0  0  0  0
  -21.2931   31.8048  -43.3404 H   0  0  0  0  0  0
  -19.2211   30.7132  -42.5716 H   0  0  0  0  0  0
  -23.1717   33.2569  -42.7771 H   0  0  0  0  0  0
  -23.6326   33.5710  -41.1342 H   0  0  0  0  0  0
  -24.0324   31.0648  -43.9248 H   0  0  0  0  0  0
  -27.1776   29.1512  -37.9433 H   0  0  0  0  0  0
  -26.4447   28.6074  -39.4011 H   0  0  0  0  0  0
  -28.2558   27.3808  -39.9810 H   0  0  0  0  0  0
  -29.3982   28.6893  -39.7102 H   0  0  0  0  0  0
  -29.4130   28.1256  -37.2603 H   0  0  0  0  0  0
  -28.1072   26.9683  -37.5810 H   0  0  0  0  0  0
  -29.7690   25.6154  -36.1076 H   0  0  0  0  0  0
  -30.5759   23.6878  -37.1816 H   0  0  0  0  0  0
  -25.2669   32.2411  -40.1006 H   0  0  0  0  0  0
  1  6  1  0  0  0
  1  2  2  0  0  0
  1 23  1  0  0  0
  2  3  1  0  0  0
  2 24  1  0  0  0
  3  4  2  0  0  0
  3 25  1  0  0  0
  4  5  1  0  0  0
  4  7  1  0  0  0
  5  6  2  0  0  0
  5 26  1  0  0  0
  6 27  1  0  0  0
  7 28  1  0  0  0
  7 29  1  0  0  0
  7  8  1  0  0  0
  8  9  2  0  0  0
  8 13  1  0  0  0
  9 10  1  0  0  0
  9 30  1  0  0  0
 10 11  1  0  0  0
 10 22  2  0  0  0
 11 12  2  0  0  0
 12 14  1  0  0  0
 12 13  1  0  0  0
 13 39  1  0  0  0
 14 15  1  0  0  0
 15 16  1  0  0  0
 15 31  1  0  0  0
 15 32  1  0  0  0
 16 17  1  0  0  0
 16 33  1  0  0  0
 16 34  1  0  0  0
 17 18  1  0  0  0
 17 35  1  0  0  0
 17 36  1  0  0  0
 18 19  2  0  0  0
 18 20  1  0  0  0
 20 21  1  0  0  0
 20 37  1  0  0  0
 21 38  1  0  0  0
M  END
> <s_m_entry_id>
53603

> <s_m_entry_name>
ligand_docking-pose.96

> <s_m_Source_Path>
/home/csk/Desktop/cluster/DUD-E-result/hdac8

> <s_m_Source_File>
ligand_docking-pose.sdf

> <i_m_Source_File_Index>
96

> <i_lp_mmshare_version>
53161

> <r_lp_tautomer_probability>
0.273662037148395

> <s_lp_Force_Field>
OPLS_2005

> <r_lp_Energy>
25.600549

> <b_lp_Chiralities_Consistent>
1

> <s_lp_Variant>
331364-2

> <s_i_glide_gridfile>
glide-grid_3f07

> <i_i_glide_lignum>
107

> <i_i_glide_rotatable_bonds>
9

> <r_i_docking_score>
-7.32766867318482

> <r_i_glide_ligand_efficiency>
-0.333075848781128

> <r_i_glide_ligand_efficiency_sa>
-0.933291627414532

> <r_i_glide_ligand_efficiency_ln>
-1.79114950693547

> <r_i_glide_gscore>
-7.32766867318482

> <r_i_glide_lipo>
-0.547208311475922

> <r_i_glide_hbond>
-0.31432247401484

> <r_i_glide_metal>
-2.3

> <r_i_glide_rewards>
-1.28024237555328

> <r_i_glide_evdw>
-31.1937923431396

> <r_i_glide_ecoul>
-17.7649326324463

> <r_i_glide_erotb>
1.46332626053548

> <r_i_glide_esite>
-0.124792260652328

> <r_i_glide_emodel>
-69.6371983963966

> <r_i_glide_energy>
-48.9587249755859

> <r_i_glide_einternal>
13.3544330596924

> <i_i_glide_confnum>
124

> <i_i_glide_posenum>
229

> <r_i_glide_eff_state_penalty>
0

> <i_f3d_flags>
0

> <s_user_duplicate_titles>
331364

> <s_m_subgroup_title>
dock_pv

> <s_m_subgroupid>
dock_pv1

> <b_m_subgroup_collapsed>
0

$$$$
329846
                    3D
 Schrodinger Suite 2021-1.
 41 43  0  0  1  0            999 V2000
  -25.2554   34.5112  -42.4286 C   0  0  0  0  0  0
  -24.5071   33.1603  -42.5097 C   0  0  2  0  0  0
  -24.1226   32.7554  -43.9399 C   0  0  0  0  0  0
  -22.8243   32.2991  -44.1854 C   0  0  0  0  0  0
  -22.4210   32.0040  -45.4842 C   0  0  0  0  0  0
  -23.3157   32.1521  -46.5402 C   0  0  0  0  0  0
  -24.6086   32.6139  -46.3103 C   0  0  0  0  0  0
  -25.0060   32.9296  -45.0140 C   0  0  0  0  0  0
  -25.1822   32.1019  -41.7187 N   0  0  0  0  0  0
  -24.7015   31.6854  -40.5169 C   0  0  0  0  0  0
  -23.6407   32.0082  -39.9847 O   0  0  0  0  0  0
  -25.7274   30.7542  -39.9874 C   0  0  0  0  0  0
  -25.7953   30.0689  -38.7810 C   0  0  0  0  0  0
  -26.8793   29.2134  -38.5566 C   0  0  0  0  0  0
  -27.8778   29.0296  -39.5278 C   0  0  0  0  0  0
  -27.7972   29.7698  -40.7210 C   0  0  0  0  0  0
  -26.7090   30.6223  -40.9258 C   0  0  0  0  0  0
  -26.3623   31.5131  -42.0607 C   0  0  0  0  0  0
  -27.0130   31.6879  -43.0876 O   0  0  0  0  0  0
  -28.9770   28.0525  -39.3449 C   0  0  0  0  0  0
  -29.0896   27.1307  -38.3565 C   0  0  0  0  0  0
  -30.1835   26.1854  -38.2726 C   0  0  0  0  0  0
  -31.0130   26.0690  -39.1810 O   0  0  0  0  0  0
  -30.2130   25.4585  -37.1435 N   0  0  0  0  0  0
  -31.2024   24.4690  -37.0138 O   0  0  0  0  0  0
  -23.5500   33.3644  -42.0238 H   0  0  0  0  0  0
  -24.7031   35.2986  -42.9426 H   0  0  0  0  0  0
  -26.2513   34.4590  -42.8689 H   0  0  0  0  0  0
  -25.3761   34.8261  -41.3909 H   0  0  0  0  0  0
  -22.1198   32.1863  -43.3735 H   0  0  0  0  0  0
  -21.4130   31.6690  -45.6729 H   0  0  0  0  0  0
  -22.9989   31.9195  -47.5463 H   0  0  0  0  0  0
  -25.2964   32.7392  -47.1336 H   0  0  0  0  0  0
  -26.0059   33.3028  -44.8511 H   0  0  0  0  0  0
  -25.0236   30.1826  -38.0325 H   0  0  0  0  0  0
  -26.9266   28.6792  -37.6216 H   0  0  0  0  0  0
  -28.5558   29.6690  -41.4845 H   0  0  0  0  0  0
  -29.7479   28.1077  -40.0989 H   0  0  0  0  0  0
  -28.3449   27.0618  -37.5810 H   0  0  0  0  0  0
  -29.5662   25.4839  -36.3665 H   0  0  0  0  0  0
  -30.7270   23.6457  -37.1810 H   0  0  0  0  0  0
  1  2  1  0  0  0
  1 27  1  0  0  0
  1 28  1  0  0  0
  1 29  1  0  0  0
  2 26  1  0  0  0
  2  3  1  0  0  0
  2  9  1  0  0  0
  3  8  1  0  0  0
  3  4  2  0  0  0
  4  5  1  0  0  0
  4 30  1  0  0  0
  5  6  2  0  0  0
  5 31  1  0  0  0
  6  7  1  0  0  0
  6 32  1  0  0  0
  7  8  2  0  0  0
  7 33  1  0  0  0
  8 34  1  0  0  0
  9 18  1  0  0  0
  9 10  1  0  0  0
 10 11  2  0  0  0
 10 12  1  0  0  0
 12 17  2  0  0  0
 12 13  1  0  0  0
 13 14  2  0  0  0
 13 35  1  0  0  0
 14 15  1  0  0  0
 14 36  1  0  0  0
 15 16  2  0  0  0
 15 20  1  0  0  0
 16 17  1  0  0  0
 16 37  1  0  0  0
 17 18  1  0  0  0
 18 19  2  0  0  0
 20 21  2  0  0  0
 20 38  1  0  0  0
 21 22  1  0  0  0
 21 39  1  0  0  0
 22 23  2  0  0  0
 22 24  1  0  0  0
 24 25  1  0  0  0
 24 40  1  0  0  0
 25 41  1  0  0  0
M  END
> <s_m_entry_id>
53604

> <s_m_entry_name>
ligand_docking-pose.97

> <s_m_Source_Path>
/home/csk/Desktop/cluster/DUD-E-result/hdac8

> <s_m_Source_File>
ligand_docking-pose.sdf

> <i_m_Source_File_Index>
97

> <i_lp_mmshare_version>
53161

> <r_lp_tautomer_probability>
1

> <s_lp_Force_Field>
OPLS_2005

> <r_lp_Energy>
44.641162

> <b_lp_Chiralities_Consistent>
1

> <s_lp_Variant>
329846-1

> <s_i_glide_gridfile>
glide-grid_3f07

> <i_i_glide_lignum>
317

> <i_i_glide_rotatable_bonds>
6

> <r_i_docking_score>
-7.31912962210987

> <r_i_glide_ligand_efficiency>
-0.292765184884395

> <r_i_glide_ligand_efficiency_sa>
-0.856050592814632

> <r_i_glide_ligand_efficiency_ln>
-1.73485305705543

> <r_i_glide_gscore>
-7.31912962210987

> <r_i_glide_lipo>
-1.00196301811325

> <r_i_glide_hbond>
-0.237509776854812

> <r_i_glide_metal>
-2.3

> <r_i_glide_rewards>
-1.3217174715192

> <r_i_glide_evdw>
-31.9070987701416

> <r_i_glide_ecoul>
-10.3139247894287

> <r_i_glide_erotb>
0.83469820120934

> <r_i_glide_esite>
-0.150193899910556

> <r_i_glide_emodel>
-63.6510074713856

> <r_i_glide_energy>
-42.2210235595703

> <r_i_glide_einternal>
2.18368005752563

> <i_i_glide_confnum>
3

> <i_i_glide_posenum>
193

> <r_i_glide_eff_state_penalty>
0

> <i_f3d_flags>
0

> <s_user_duplicate_titles>
329846

> <s_m_subgroup_title>
dock_pv

> <s_m_subgroupid>
dock_pv1

> <b_m_subgroup_collapsed>
0

$$$$
234667
                    3D
 Schrodinger Suite 2021-1.
 56 59  0  0  1  0            999 V2000
  -29.8388   36.3828  -42.2336 C   0  0  0  0  0  0
  -30.4955   35.8562  -43.3413 C   0  0  0  0  0  0
  -29.8610   34.9854  -44.2266 C   0  0  0  0  0  0
  -28.5232   34.6593  -43.9587 C   0  0  0  0  0  0
  -27.8289   35.1829  -42.8239 C   0  0  0  0  0  0
  -28.5146   36.0502  -41.9564 C   0  0  0  0  0  0
  -26.4919   34.6584  -42.8477 C   0  0  0  0  0  0
  -26.4323   33.8583  -43.9714 C   0  0  0  0  0  0
  -27.6412   33.8316  -44.6336 N   0  0  0  0  0  0
  -27.9824   33.0675  -45.8356 C   0  0  0  0  0  0
  -26.8366   32.1823  -46.3709 C   0  0  0  0  0  0
  -26.4654   30.8919  -45.6812 C   0  0  0  0  0  0
  -27.1653   30.8690  -47.0312 C   0  0  0  0  0  0
  -25.3918   34.9356  -41.8395 C   0  0  0  0  0  0
  -25.2275   33.8304  -40.7812 C   0  0  0  0  0  0
  -24.6654   32.6277  -41.3822 N   0  0  1  0  0  0
  -24.5086   31.5523  -40.4067 C   0  0  0  0  0  0
  -25.7713   30.7472  -40.0901 C   0  0  0  0  0  0
  -26.7853   30.5622  -41.0359 C   0  0  0  0  0  0
  -27.8553   29.7179  -40.7541 C   0  0  0  0  0  0
  -27.9296   29.0467  -39.5287 C   0  0  0  0  0  0
  -26.9490   29.2837  -38.5619 C   0  0  0  0  0  0
  -25.8739   30.1241  -38.8449 C   0  0  0  0  0  0
  -29.0127   28.0644  -39.3244 C   0  0  0  0  0  0
  -29.0981   27.1323  -38.3457 C   0  0  0  0  0  0
  -30.1873   26.1838  -38.2674 C   0  0  0  0  0  0
  -31.0130   26.0691  -39.1810 O   0  0  0  0  0  0
  -30.2133   25.4535  -37.1413 N   0  0  0  0  0  0
  -31.2063   24.4691  -37.0107 O   0  0  0  0  0  0
  -30.3626   37.0687  -41.5833 H   0  0  0  0  0  0
  -31.5215   36.1402  -43.5276 H   0  0  0  0  0  0
  -30.3847   34.5916  -45.0862 H   0  0  0  0  0  0
  -28.0153   36.4723  -41.0959 H   0  0  0  0  0  0
  -25.5979   33.2857  -44.3497 H   0  0  0  0  0  0
  -28.8518   32.4608  -45.5830 H   0  0  0  0  0  0
  -28.2984   33.7747  -46.6041 H   0  0  0  0  0  0
  -26.0308   32.7730  -46.8107 H   0  0  0  0  0  0
  -25.4111   30.6179  -45.6261 H   0  0  0  0  0  0
  -27.0131   30.6022  -44.7844 H   0  0  0  0  0  0
  -28.2069   30.5488  -47.0813 H   0  0  0  0  0  0
  -26.6043   30.5866  -47.9227 H   0  0  0  0  0  0
  -25.5993   35.8747  -41.3255 H   0  0  0  0  0  0
  -24.4374   35.1046  -42.3408 H   0  0  0  0  0  0
  -26.1985   33.5969  -40.3412 H   0  0  0  0  0  0
  -24.5781   34.1900  -39.9812 H   0  0  0  0  0  0
  -25.2060   32.3365  -42.1814 H   0  0  0  0  0  0
  -23.9936   31.8798  -39.5007 H   0  0  0  0  0  0
  -23.8278   30.8317  -40.8615 H   0  0  0  0  0  0
  -26.7320   31.0352  -42.0049 H   0  0  0  0  0  0
  -28.6072   29.5642  -41.5147 H   0  0  0  0  0  0
  -27.0008   28.8085  -37.5914 H   0  0  0  0  0  0
  -25.1022   30.2693  -38.1022 H   0  0  0  0  0  0
  -29.8020   28.1251  -40.0589 H   0  0  0  0  0  0
  -28.3394   27.0599  -37.5828 H   0  0  0  0  0  0
  -29.5681   25.4806  -36.3632 H   0  0  0  0  0  0
  -30.7365   23.6448  -37.1885 H   0  0  0  0  0  0
  1  6  1  0  0  0
  1  2  2  0  0  0
  1 30  1  0  0  0
  2  3  1  0  0  0
  2 31  1  0  0  0
  3  4  2  0  0  0
  3 32  1  0  0  0
  4  9  1  0  0  0
  4  5  1  0  0  0
  5  6  2  0  0  0
  5  7  1  0  0  0
  6 33  1  0  0  0
  7  8  2  0  0  0
  7 14  1  0  0  0
  8  9  1  0  0  0
  8 34  1  0  0  0
  9 10  1  0  0  0
 10 11  1  0  0  0
 10 35  1  0  0  0
 10 36  1  0  0  0
 11 13  1  0  0  0
 11 12  1  0  0  0
 11 37  1  0  0  0
 12 13  1  0  0  0
 12 38  1  0  0  0
 12 39  1  0  0  0
 13 40  1  0  0  0
 13 41  1  0  0  0
 14 15  1  0  0  0
 14 42  1  0  0  0
 14 43  1  0  0  0
 15 16  1  0  0  0
 15 44  1  0  0  0
 15 45  1  0  0  0
 16 17  1  0  0  0
 16 46  1  0  0  0
 17 18  1  0  0  0
 17 47  1  0  0  0
 17 48  1  0  0  0
 18 23  1  0  0  0
 18 19  2  0  0  0
 19 20  1  0  0  0
 19 49  1  0  0  0
 20 21  2  0  0  0
 20 50  1  0  0  0
 21 22  1  0  0  0
 21 24  1  0  0  0
 22 23  2  0  0  0
 22 51  1  0  0  0
 23 52  1  0  0  0
 24 25  2  0  0  0
 24 53  1  0  0  0
 25 26  1  0  0  0
 25 54  1  0  0  0
 26 27  2  0  0  0
 26 28  1  0  0  0
 28 29  1  0  0  0
 28 55  1  0  0  0
 29 56  1  0  0  0
M  END
> <s_m_entry_id>
53605

> <s_m_entry_name>
ligand_docking-pose.98

> <s_m_Source_Path>
/home/csk/Desktop/cluster/DUD-E-result/hdac8

> <s_m_Source_File>
ligand_docking-pose.sdf

> <i_m_Source_File_Index>
98

> <i_lp_mmshare_version>
53161

> <r_lp_tautomer_probability>
1

> <s_lp_Force_Field>
OPLS_2005

> <r_lp_Energy>
31.681659

> <b_lp_Chiralities_Consistent>
1

> <s_lp_Variant>
234667-1

> <s_i_glide_gridfile>
glide-grid_3f07

> <i_i_glide_lignum>
22

> <i_i_glide_rotatable_bonds>
11

> <r_i_docking_score>
-7.30644628514495

> <r_i_glide_ligand_efficiency>
-0.251946423625688

> <r_i_glide_ligand_efficiency_sa>
-0.774059235607747

> <r_i_glide_ligand_efficiency_ln>
-1.67299092380641

> <r_i_glide_gscore>
-7.30644628514495

> <r_i_glide_lipo>
-1.4441063766667

> <r_i_glide_hbond>
-0.23755860184086

> <r_i_glide_metal>
-2.3

> <r_i_glide_rewards>
-1.00084314504546

> <r_i_glide_evdw>
-36.1513633728027

> <r_i_glide_ecoul>
-11.3429136276245

> <r_i_glide_erotb>
1.28506705119188

> <r_i_glide_esite>
-0.1

> <r_i_glide_emodel>
-68.9645655939637

> <r_i_glide_energy>
-47.4942770004272

> <r_i_glide_einternal>
7.55448532104492

> <i_i_glide_confnum>
36

> <i_i_glide_posenum>
276

> <r_i_glide_eff_state_penalty>
0

> <i_f3d_flags>
0

> <s_user_duplicate_titles>
234667

> <s_m_subgroup_title>
dock_pv

> <s_m_subgroupid>
dock_pv1

> <b_m_subgroup_collapsed>
0

$$$$
235355
                    3D
 Schrodinger Suite 2021-1.
 48 50  0  0  1  0            999 V2000
  -27.7112   34.4643  -43.1862 C   0  0  0  0  0  0
  -26.5853   33.7524  -43.9028 C   0  0  0  0  0  0
  -26.7918   32.8852  -44.8622 N   0  0  0  0  0  0
  -25.5414   32.4671  -45.2249 C   0  0  0  0  0  0
  -25.1750   31.5374  -46.2079 C   0  0  0  0  0  0
  -23.8161   31.2722  -46.3868 C   0  0  0  0  0  0
  -22.8447   31.9009  -45.6085 C   0  0  0  0  0  0
  -23.1771   32.8346  -44.6237 C   0  0  0  0  0  0
  -24.5401   33.1076  -44.4503 C   0  0  0  0  0  0
  -25.2464   33.9464  -43.6076 N   0  0  0  0  0  0
  -24.6857   34.8053  -42.5580 C   0  0  0  0  0  0
  -24.1398   33.9771  -41.3774 C   0  0  0  0  0  0
  -25.2316   33.2560  -40.7300 N   0  0  1  0  0  0
  -24.7920   31.9619  -40.2205 C   0  0  0  0  0  0
  -25.9450   30.9949  -39.9726 C   0  0  0  0  0  0
  -25.8151   30.0615  -38.9481 C   0  0  0  0  0  0
  -26.8112   29.1156  -38.7360 C   0  0  0  0  0  0
  -27.9570   29.0894  -39.5332 C   0  0  0  0  0  0
  -28.0965   30.0436  -40.5472 C   0  0  0  0  0  0
  -27.0951   30.9868  -40.7713 C   0  0  0  0  0  0
  -29.0141   28.0737  -39.3445 C   0  0  0  0  0  0
  -29.1029   27.1489  -38.3575 C   0  0  0  0  0  0
  -30.1839   26.1898  -38.2735 C   0  0  0  0  0  0
  -31.0134   26.0690  -39.1810 O   0  0  0  0  0  0
  -30.2106   25.4638  -37.1438 N   0  0  0  0  0  0
  -31.1936   24.4677  -37.0148 O   0  0  0  0  0  0
  -28.6892   34.1777  -43.5717 H   0  0  0  0  0  0
  -27.7066   34.2439  -42.1195 H   0  0  0  0  0  0
  -27.6356   35.5454  -43.2963 H   0  0  0  0  0  0
  -25.9244   31.0438  -46.8086 H   0  0  0  0  0  0
  -23.5046   30.5621  -47.1389 H   0  0  0  0  0  0
  -21.8038   31.6582  -45.7750 H   0  0  0  0  0  0
  -22.4137   33.3186  -44.0323 H   0  0  0  0  0  0
  -25.4087   35.5516  -42.2280 H   0  0  0  0  0  0
  -23.8693   35.3698  -43.0102 H   0  0  0  0  0  0
  -23.6057   34.6001  -40.6572 H   0  0  0  0  0  0
  -23.4062   33.2731  -41.7743 H   0  0  0  0  0  0
  -25.4210   33.7743  -39.8737 H   0  0  0  0  0  0
  -24.1873   32.0697  -39.3154 H   0  0  0  0  0  0
  -24.1509   31.4670  -40.9527 H   0  0  0  0  0  0
  -24.9262   30.0438  -38.3340 H   0  0  0  0  0  0
  -26.6627   28.3837  -37.9606 H   0  0  0  0  0  0
  -28.9694   30.0501  -41.1853 H   0  0  0  0  0  0
  -27.2012   31.6967  -41.5792 H   0  0  0  0  0  0
  -29.7836   28.1010  -40.1015 H   0  0  0  0  0  0
  -28.3579   27.0995  -37.5817 H   0  0  0  0  0  0
  -29.5642   25.4942  -36.3667 H   0  0  0  0  0  0
  -30.7121   23.6477  -37.1810 H   0  0  0  0  0  0
  1  2  1  0  0  0
  1 27  1  0  0  0
  1 28  1  0  0  0
  1 29  1  0  0  0
  2 10  1  0  0  0
  2  3  2  0  0  0
  3  4  1  0  0  0
  4  9  2  0  0  0
  4  5  1  0  0  0
  5  6  2  0  0  0
  5 30  1  0  0  0
  6  7  1  0  0  0
  6 31  1  0  0  0
  7  8  2  0  0  0
  7 32  1  0  0  0
  8  9  1  0  0  0
  8 33  1  0  0  0
  9 10  1  0  0  0
 10 11  1  0  0  0
 11 12  1  0  0  0
 11 34  1  0  0  0
 11 35  1  0  0  0
 12 13  1  0  0  0
 12 36  1  0  0  0
 12 37  1  0  0  0
 13 14  1  0  0  0
 13 38  1  0  0  0
 14 15  1  0  0  0
 14 39  1  0  0  0
 14 40  1  0  0  0
 15 20  1  0  0  0
 15 16  2  0  0  0
 16 17  1  0  0  0
 16 41  1  0  0  0
 17 18  2  0  0  0
 17 42  1  0  0  0
 18 19  1  0  0  0
 18 21  1  0  0  0
 19 20  2  0  0  0
 19 43  1  0  0  0
 20 44  1  0  0  0
 21 22  2  0  0  0
 21 45  1  0  0  0
 22 23  1  0  0  0
 22 46  1  0  0  0
 23 24  2  0  0  0
 23 25  1  0  0  0
 25 26  1  0  0  0
 25 47  1  0  0  0
 26 48  1  0  0  0
M  END
> <s_m_entry_id>
53606

> <s_m_entry_name>
ligand_docking-pose.99

> <s_m_Source_Path>
/home/csk/Desktop/cluster/DUD-E-result/hdac8

> <s_m_Source_File>
ligand_docking-pose.sdf

> <i_m_Source_File_Index>
99

> <i_lp_mmshare_version>
53161

> <r_lp_tautomer_probability>
1

> <s_lp_Force_Field>
OPLS_2005

> <r_lp_Energy>
28.042542

> <b_lp_Chiralities_Consistent>
1

> <s_lp_Variant>
235355-1

> <s_i_glide_gridfile>
glide-grid_3f07

> <i_i_glide_lignum>
249

> <i_i_glide_rotatable_bonds>
9

> <r_i_docking_score>
-7.27710235442249

> <r_i_glide_ligand_efficiency>
-0.279888552093173

> <r_i_glide_ligand_efficiency_sa>
-0.829168734267752

> <r_i_glide_ligand_efficiency_ln>
-1.70900360981571

> <r_i_glide_gscore>
-7.27710235442249

> <r_i_glide_lipo>
-0.952553934058842

> <r_i_glide_hbond>
-0.302192117297385

> <r_i_glide_metal>
-2.3

> <r_i_glide_rewards>
-1.27729730400024

> <r_i_glide_evdw>
-32.3525619506836

> <r_i_glide_ecoul>
-13.1284055709839

> <r_i_glide_erotb>
1.24182993411574

> <r_i_glide_esite>
-0.1

> <r_i_glide_emodel>
-69.1321073494474

> <r_i_glide_energy>
-45.4809675216675

> <r_i_glide_einternal>
1.99208080768585

> <i_i_glide_confnum>
42

> <i_i_glide_posenum>
279

> <r_i_glide_eff_state_penalty>
0

> <i_f3d_flags>
0

> <s_user_duplicate_titles>
235355

> <s_m_subgroup_title>
dock_pv

> <s_m_subgroupid>
dock_pv1

> <b_m_subgroup_collapsed>
0

$$$$
318260
                    3D
 Schrodinger Suite 2021-1.
 43 44  0  0  1  0            999 V2000
  -25.1098   31.5009  -39.3201 C   0  0  0  0  0  0
  -25.8668   30.7312  -40.3188 N   0  0  0  0  0  0
  -26.8939   29.8888  -39.8316 C   0  0  0  0  0  0
  -28.1673   29.8726  -40.4031 C   0  0  0  0  0  0
  -29.0982   28.9311  -39.9811 C   0  0  0  0  0  0
  -28.7852   27.9772  -39.0048 C   0  0  0  0  0  0
  -27.5400   28.0577  -38.3810 C   0  0  0  0  0  0
  -26.6131   29.0156  -38.7807 C   0  0  0  0  0  0
  -29.7639   26.8625  -38.6957 C   0  0  0  0  0  0
  -30.5385   26.4690  -39.5796 O   0  0  0  0  0  0
  -29.8130   26.4019  -37.4341 N   0  0  0  0  0  0
  -30.6118   25.2740  -37.1683 O   0  0  0  0  0  0
  -25.5000   30.7170  -41.6380 C   0  0  0  0  0  0
  -26.1216   30.0818  -42.4973 O   0  0  0  0  0  0
  -24.2195   31.4742  -42.0698 C   0  0  0  0  0  0
  -23.6031   31.0510  -43.4354 C   0  0  0  0  0  0
  -23.7878   32.0649  -44.5819 C   0  0  0  0  0  0
  -25.2278   32.2612  -45.0369 C   0  0  0  0  0  0
  -25.9487   33.3769  -44.6035 C   0  0  0  0  0  0
  -27.2432   33.5924  -45.0686 C   0  0  0  0  0  0
  -27.8127   32.6915  -45.9653 C   0  0  0  0  0  0
  -27.1078   31.5652  -46.3858 C   0  0  0  0  0  0
  -25.8133   31.3483  -45.9189 C   0  0  0  0  0  0
  -24.2092   30.9650  -39.0218 H   0  0  0  0  0  0
  -24.8158   32.4824  -39.6914 H   0  0  0  0  0  0
  -25.7061   31.6705  -38.4232 H   0  0  0  0  0  0
  -28.4181   30.5508  -41.2063 H   0  0  0  0  0  0
  -30.0568   28.9206  -40.4777 H   0  0  0  0  0  0
  -27.2564   27.3473  -37.6175 H   0  0  0  0  0  0
  -25.6358   29.0207  -38.3216 H   0  0  0  0  0  0
  -29.2402   26.6924  -36.6482 H   0  0  0  0  0  0
  -29.9789   24.5505  -37.0932 H   0  0  0  0  0  0
  -24.4288   32.5443  -42.0598 H   0  0  0  0  0  0
  -23.4564   31.2996  -41.3108 H   0  0  0  0  0  0
  -22.5283   30.9208  -43.2941 H   0  0  0  0  0  0
  -23.9545   30.0701  -43.7594 H   0  0  0  0  0  0
  -23.3569   33.0278  -44.3012 H   0  0  0  0  0  0
  -23.2020   31.7422  -45.4445 H   0  0  0  0  0  0
  -25.5021   34.0852  -43.9213 H   0  0  0  0  0  0
  -27.7986   34.4598  -44.7448 H   0  0  0  0  0  0
  -28.8129   32.8686  -46.3335 H   0  0  0  0  0  0
  -27.5636   30.8692  -47.0750 H   0  0  0  0  0  0
  -25.2633   30.4803  -46.2516 H   0  0  0  0  0  0
  1  2  1  0  0  0
  1 24  1  0  0  0
  1 25  1  0  0  0
  1 26  1  0  0  0
  2  3  1  0  0  0
  2 13  1  0  0  0
  3  8  1  0  0  0
  3  4  2  0  0  0
  4  5  1  0  0  0
  4 27  1  0  0  0
  5  6  2  0  0  0
  5 28  1  0  0  0
  6  7  1  0  0  0
  6  9  1  0  0  0
  7  8  2  0  0  0
  7 29  1  0  0  0
  8 30  1  0  0  0
  9 10  2  0  0  0
  9 11  1  0  0  0
 11 12  1  0  0  0
 11 31  1  0  0  0
 12 32  1  0  0  0
 13 14  2  0  0  0
 13 15  1  0  0  0
 15 16  1  0  0  0
 15 33  1  0  0  0
 15 34  1  0  0  0
 16 17  1  0  0  0
 16 35  1  0  0  0
 16 36  1  0  0  0
 17 18  1  0  0  0
 17 37  1  0  0  0
 17 38  1  0  0  0
 18 23  1  0  0  0
 18 19  2  0  0  0
 19 20  1  0  0  0
 19 39  1  0  0  0
 20 21  2  0  0  0
 20 40  1  0  0  0
 21 22  1  0  0  0
 21 41  1  0  0  0
 22 23  2  0  0  0
 22 42  1  0  0  0
 23 43  1  0  0  0
M  END
> <s_m_entry_id>
53608

> <s_m_entry_name>
ligand_docking-pose.101

> <s_m_Source_Path>
/home/csk/Desktop/cluster/DUD-E-result/hdac8

> <s_m_Source_File>
ligand_docking-pose.sdf

> <i_m_Source_File_Index>
101

> <i_lp_mmshare_version>
53161

> <r_lp_tautomer_probability>
1

> <s_lp_Force_Field>
OPLS_2005

> <r_lp_Energy>
37.373648

> <b_lp_Chiralities_Consistent>
1

> <s_lp_Variant>
318260-1

> <s_i_glide_gridfile>
glide-grid_3f07

> <i_i_glide_lignum>
350

> <i_i_glide_rotatable_bonds>
9

> <r_i_docking_score>
-7.27222721539956

> <r_i_glide_ligand_efficiency>
-0.316183791973894

> <r_i_glide_ligand_efficiency_sa>
-0.899184644619017

> <r_i_glide_ligand_efficiency_ln>
-1.75849048159427

> <r_i_glide_gscore>
-7.27222721539956

> <r_i_glide_lipo>
-1.30861590304633

> <r_i_glide_hbond>
-0.596345718438273

> <r_i_glide_metal>
-2.3

> <r_i_glide_rewards>
-0.980834279216604

> <r_i_glide_evdw>
-22.3633499145508

> <r_i_glide_ecoul>
-14.1217584609985

> <r_i_glide_erotb>
1.33144995899883

> <r_i_glide_esite>
-0.181450008819871

> <r_i_glide_emodel>
-49.3209812300856

> <r_i_glide_energy>
-36.4851083755493

> <r_i_glide_einternal>
11.731499671936

> <i_i_glide_confnum>
28

> <i_i_glide_posenum>
298

> <r_i_glide_eff_state_penalty>
0

> <i_f3d_flags>
0

> <s_user_duplicate_titles>
318260

> <s_m_subgroup_title>
dock_pv

> <s_m_subgroupid>
dock_pv1

> <b_m_subgroup_collapsed>
0

$$$$
84154
                    3D
 Schrodinger Suite 2021-1.
 47 47  0  0  1  0            999 V2000
  -24.4180   30.7327  -38.6516 C   0  0  0  0  0  0
  -25.8661   30.8725  -39.1475 C   0  0  2  0  0  0
  -26.6748   29.5691  -38.9078 C   0  0  0  0  0  0
  -28.1453   29.5867  -39.3797 C   0  0  0  0  0  0
  -28.8132   28.2017  -39.4112 C   0  0  0  0  0  0
  -29.1033   27.5527  -38.0360 C   0  0  0  0  0  0
  -30.0419   26.3314  -38.1152 C   0  0  0  0  0  0
  -30.6131   26.0690  -39.1810 O   0  0  0  0  0  0
  -30.2130   25.6106  -36.9952 N   0  0  0  0  0  0
  -31.0311   24.4700  -37.0605 O   0  0  0  0  0  0
  -25.8548   31.2637  -40.5589 N   0  0  0  0  0  0
  -26.7074   32.1166  -41.1555 C   0  0  0  0  0  0
  -27.5618   32.7634  -40.5427 O   0  0  0  0  0  0
  -26.6131   32.1995  -42.6606 C   0  0  0  0  0  0
  -26.1974   31.1028  -43.4277 C   0  0  0  0  0  0
  -26.2354   31.1588  -44.8187 C   0  0  0  0  0  0
  -26.6967   32.3046  -45.4878 C   0  0  0  0  0  0
  -27.0520   33.4168  -44.7076 C   0  0  0  0  0  0
  -27.0129   33.3664  -43.3171 C   0  0  0  0  0  0
  -26.8094   32.3343  -46.9075 N   0  0  0  0  0  0
  -27.4730   33.4627  -47.5642 C   0  0  0  0  0  0
  -26.7970   31.0825  -47.6649 C   0  0  0  0  0  0
  -26.3053   31.6698  -38.5457 H   0  0  0  0  0  0
  -24.3875   30.4688  -37.5946 H   0  0  0  0  0  0
  -23.8820   29.9453  -39.1813 H   0  0  0  0  0  0
  -23.8657   31.6671  -38.7671 H   0  0  0  0  0  0
  -26.6540   29.3170  -37.8493 H   0  0  0  0  0  0
  -26.1687   28.7541  -39.4221 H   0  0  0  0  0  0
  -28.1952   29.9659  -40.3989 H   0  0  0  0  0  0
  -28.7316   30.2839  -38.7811 H   0  0  0  0  0  0
  -28.1811   27.5208  -39.9810 H   0  0  0  0  0  0
  -29.7364   28.3146  -39.9809 H   0  0  0  0  0  0
  -29.5647   28.2830  -37.3697 H   0  0  0  0  0  0
  -28.1574   27.2634  -37.5815 H   0  0  0  0  0  0
  -29.7831   25.7495  -36.0898 H   0  0  0  0  0  0
  -30.4063   23.7427  -37.1792 H   0  0  0  0  0  0
  -25.0770   30.9250  -41.1021 H   0  0  0  0  0  0
  -25.8820   30.1813  -42.9595 H   0  0  0  0  0  0
  -25.9295   30.2784  -45.3601 H   0  0  0  0  0  0
  -27.3970   34.3333  -45.1587 H   0  0  0  0  0  0
  -27.3285   34.2341  -42.7540 H   0  0  0  0  0  0
  -27.0231   34.4123  -47.2738 H   0  0  0  0  0  0
  -27.4185   33.3932  -48.6515 H   0  0  0  0  0  0
  -28.5274   33.4955  -47.2850 H   0  0  0  0  0  0
  -25.8922   30.5058  -47.4738 H   0  0  0  0  0  0
  -27.6525   30.4690  -47.3795 H   0  0  0  0  0  0
  -26.8585   31.2537  -48.7404 H   0  0  0  0  0  0
  1  2  1  0  0  0
  1 24  1  0  0  0
  1 25  1  0  0  0
  1 26  1  0  0  0
  2 23  1  0  0  0
  2  3  1  0  0  0
  2 11  1  0  0  0
  3  4  1  0  0  0
  3 27  1  0  0  0
  3 28  1  0  0  0
  4  5  1  0  0  0
  4 29  1  0  0  0
  4 30  1  0  0  0
  5  6  1  0  0  0
  5 31  1  0  0  0
  5 32  1  0  0  0
  6  7  1  0  0  0
  6 33  1  0  0  0
  6 34  1  0  0  0
  7  8  2  0  0  0
  7  9  1  0  0  0
  9 10  1  0  0  0
  9 35  1  0  0  0
 10 36  1  0  0  0
 11 12  1  0  0  0
 11 37  1  0  0  0
 12 13  2  0  0  0
 12 14  1  0  0  0
 14 19  1  0  0  0
 14 15  2  0  0  0
 15 16  1  0  0  0
 15 38  1  0  0  0
 16 17  2  0  0  0
 16 39  1  0  0  0
 17 18  1  0  0  0
 17 20  1  0  0  0
 18 19  2  0  0  0
 18 40  1  0  0  0
 19 41  1  0  0  0
 20 21  1  0  0  0
 20 22  1  0  0  0
 21 42  1  0  0  0
 21 43  1  0  0  0
 21 44  1  0  0  0
 22 45  1  0  0  0
 22 46  1  0  0  0
 22 47  1  0  0  0
M  END
> <s_m_entry_id>
53609

> <s_m_entry_name>
ligand_docking-pose.102

> <s_m_Source_Path>
/home/csk/Desktop/cluster/DUD-E-result/hdac8

> <s_m_Source_File>
ligand_docking-pose.sdf

> <i_m_Source_File_Index>
102

> <i_lp_mmshare_version>
53161

> <r_lp_tautomer_probability>
1

> <s_lp_Force_Field>
OPLS_2005

> <r_lp_Energy>
20.413221

> <b_lp_Chiralities_Consistent>
1

> <s_lp_Variant>
84154-1

> <s_i_glide_gridfile>
glide-grid_3f07

> <i_i_glide_lignum>
319

> <i_i_glide_rotatable_bonds>
11

> <r_i_docking_score>
-7.2645319283903

> <r_i_glide_ligand_efficiency>
-0.330205996745014

> <r_i_glide_ligand_efficiency_sa>
-0.925250189144464

> <r_i_glide_ligand_efficiency_ln>
-1.77571658353897

> <r_i_glide_gscore>
-7.2645319283903

> <r_i_glide_lipo>
-1.26525433002312

> <r_i_glide_hbond>
-0.221670409269034

> <r_i_glide_metal>
-2.3

> <r_i_glide_rewards>
-1.36636092180422

> <r_i_glide_evdw>
-30.1863460540771

> <r_i_glide_ecoul>
-14.8518552780151

> <r_i_glide_erotb>
1.76081387710213

> <r_i_glide_esite>
-0.134964549989938

> <r_i_glide_emodel>
-67.9549745196609

> <r_i_glide_energy>
-45.0382013320923

> <r_i_glide_einternal>
4.89026832580566

> <i_i_glide_confnum>
65

> <i_i_glide_posenum>
162

> <r_i_glide_eff_state_penalty>
0

> <i_f3d_flags>
0

> <s_user_duplicate_titles>
84154

> <s_m_subgroup_title>
dock_pv

> <s_m_subgroupid>
dock_pv1

> <b_m_subgroup_collapsed>
0

$$$$
87209
                    3D
 Schrodinger Suite 2021-1.
 47 48  0  0  1  0            999 V2000
  -26.9698   31.4613  -50.3228 C   0  0  0  0  0  0
  -25.7297   32.0248  -49.9024 O   0  0  0  0  0  0
  -25.3822   31.9670  -48.5665 C   0  0  0  0  0  0
  -24.2229   32.6458  -48.1875 C   0  0  0  0  0  0
  -23.7659   32.6863  -46.8677 C   0  0  0  0  0  0
  -24.5197   31.9933  -45.9164 C   0  0  0  0  0  0
  -25.6896   31.2692  -46.2728 C   0  0  0  0  0  0
  -26.1240   31.2711  -47.6033 C   0  0  0  0  0  0
  -26.1651   30.6504  -45.0809 C   0  0  0  0  0  0
  -25.3566   31.0368  -44.0266 C   0  0  0  0  0  0
  -24.3615   31.8402  -44.5505 N   0  0  0  0  0  0
  -25.5005   30.6449  -42.6449 C   0  0  0  0  0  0
  -26.1341   29.6306  -42.3546 O   0  0  0  0  0  0
  -24.8825   31.4234  -41.7371 N   0  0  0  0  0  0
  -24.8494   31.1759  -40.2905 C   0  0  0  0  0  0
  -26.1097   31.6404  -39.5203 C   0  0  0  0  0  0
  -27.3894   30.7892  -39.6972 C   0  0  0  0  0  0
  -27.2807   29.3559  -39.1489 C   0  0  0  0  0  0
  -28.6322   28.6204  -39.1661 C   0  0  0  0  0  0
  -28.5307   27.2031  -38.5680 C   0  0  0  0  0  0
  -29.8756   26.4685  -38.4948 C   0  0  0  0  0  0
  -30.6130   26.4691  -39.4885 O   0  0  0  0  0  0
  -30.1997   25.8521  -37.3444 N   0  0  0  0  0  0
  -31.3978   25.1174  -37.2905 O   0  0  0  0  0  0
  -23.6211   32.2245  -43.9824 H   0  0  0  0  0  0
  -27.1109   31.6493  -51.3854 H   0  0  0  0  0  0
  -26.9960   30.3806  -50.1728 H   0  0  0  0  0  0
  -27.8130   31.9126  -49.7976 H   0  0  0  0  0  0
  -23.6651   33.1739  -48.9479 H   0  0  0  0  0  0
  -22.8711   33.2321  -46.6030 H   0  0  0  0  0  0
  -27.0222   30.7360  -47.8661 H   0  0  0  0  0  0
  -27.0129   29.9936  -44.9893 H   0  0  0  0  0  0
  -24.4704   32.2906  -42.0436 H   0  0  0  0  0  0
  -23.9761   31.6824  -39.8746 H   0  0  0  0  0  0
  -24.6693   30.1133  -40.1129 H   0  0  0  0  0  0
  -26.3221   32.6767  -39.7864 H   0  0  0  0  0  0
  -25.8644   31.6682  -38.4574 H   0  0  0  0  0  0
  -27.6953   30.7756  -40.7426 H   0  0  0  0  0  0
  -28.2157   31.2721  -39.1812 H   0  0  0  0  0  0
  -26.8997   29.3884  -38.1269 H   0  0  0  0  0  0
  -26.5515   28.7891  -39.7294 H   0  0  0  0  0  0
  -28.9935   28.5696  -40.1941 H   0  0  0  0  0  0
  -29.3659   29.2062  -38.6056 H   0  0  0  0  0  0
  -28.0798   27.2690  -37.5813 H   0  0  0  0  0  0
  -27.8588   26.5989  -39.1785 H   0  0  0  0  0  0
  -29.6598   25.8072  -36.4900 H   0  0  0  0  0  0
  -31.1045   24.2003  -37.2423 H   0  0  0  0  0  0
  1  2  1  0  0  0
  1 26  1  0  0  0
  1 27  1  0  0  0
  1 28  1  0  0  0
  2  3  1  0  0  0
  3  8  1  0  0  0
  3  4  2  0  0  0
  4  5  1  0  0  0
  4 29  1  0  0  0
  5  6  2  0  0  0
  5 30  1  0  0  0
  6 11  1  0  0  0
  6  7  1  0  0  0
  7  8  2  0  0  0
  7  9  1  0  0  0
  8 31  1  0  0  0
  9 10  2  0  0  0
  9 32  1  0  0  0
 10 11  1  0  0  0
 10 12  1  0  0  0
 11 25  1  0  0  0
 12 13  2  0  0  0
 12 14  1  0  0  0
 14 15  1  0  0  0
 14 33  1  0  0  0
 15 16  1  0  0  0
 15 34  1  0  0  0
 15 35  1  0  0  0
 16 17  1  0  0  0
 16 36  1  0  0  0
 16 37  1  0  0  0
 17 18  1  0  0  0
 17 38  1  0  0  0
 17 39  1  0  0  0
 18 19  1  0  0  0
 18 40  1  0  0  0
 18 41  1  0  0  0
 19 20  1  0  0  0
 19 42  1  0  0  0
 19 43  1  0  0  0
 20 21  1  0  0  0
 20 44  1  0  0  0
 20 45  1  0  0  0
 21 22  2  0  0  0
 21 23  1  0  0  0
 23 24  1  0  0  0
 23 46  1  0  0  0
 24 47  1  0  0  0
M  END
> <s_m_entry_id>
53610

> <s_m_entry_name>
ligand_docking-pose.103

> <s_m_Source_Path>
/home/csk/Desktop/cluster/DUD-E-result/hdac8

> <s_m_Source_File>
ligand_docking-pose.sdf

> <i_m_Source_File_Index>
103

> <i_lp_mmshare_version>
53161

> <r_lp_tautomer_probability>
1

> <s_lp_Force_Field>
OPLS_2005

> <r_lp_Energy>
16.754254

> <b_lp_Chiralities_Consistent>
1

> <s_lp_Variant>
87209-1

> <s_i_glide_gridfile>
glide-grid_3f07

> <i_i_glide_lignum>
364

> <i_i_glide_rotatable_bonds>
12

> <r_i_docking_score>
-7.25071058573993

> <r_i_glide_ligand_efficiency>
-0.302112941072497

> <r_i_glide_ligand_efficiency_sa>
-0.871444517969067

> <r_i_glide_ligand_efficiency_ln>
-1.73542775659645

> <r_i_glide_gscore>
-7.25071058573993

> <r_i_glide_lipo>
-0.993763108075871

> <r_i_glide_hbond>
-0.335448484142546

> <r_i_glide_metal>
-2.3

> <r_i_glide_rewards>
-1.25515289231693

> <r_i_glide_evdw>
-29.2018966674805

> <r_i_glide_ecoul>
-16.649097442627

> <r_i_glide_erotb>
1.69571382210122

> <r_i_glide_esite>
-0.104600473537729

> <r_i_glide_emodel>
-67.7480345128708

> <r_i_glide_energy>
-45.8509941101074

> <r_i_glide_einternal>
7.94387722015381

> <i_i_glide_confnum>
10

> <i_i_glide_posenum>
92

> <r_i_glide_eff_state_penalty>
0

> <i_f3d_flags>
0

> <s_user_duplicate_titles>
87209

> <s_m_subgroup_title>
dock_pv

> <s_m_subgroupid>
dock_pv1

> <b_m_subgroup_collapsed>
0

$$$$
87210
                    3D
 Schrodinger Suite 2021-1.
 47 48  0  0  1  0            999 V2000
  -22.0926   30.9943  -49.1766 C   0  0  0  0  0  0
  -22.6039   31.1576  -47.8599 O   0  0  0  0  0  0
  -23.9690   31.2690  -47.6839 C   0  0  0  0  0  0
  -24.9354   31.2690  -48.7002 C   0  0  0  0  0  0
  -26.2938   31.3424  -48.3997 C   0  0  0  0  0  0
  -26.7557   31.4308  -47.0862 C   0  0  0  0  0  0
  -25.7915   31.4456  -46.0728 C   0  0  0  0  0  0
  -24.3958   31.3571  -46.3467 C   0  0  0  0  0  0
  -23.7295   31.3737  -45.0771 C   0  0  0  0  0  0
  -24.6844   31.5304  -44.0820 C   0  0  0  0  0  0
  -25.9191   31.5427  -44.7021 N   0  0  0  0  0  0
  -24.4592   31.6572  -42.6598 C   0  0  0  0  0  0
  -23.4096   31.2690  -42.1494 O   0  0  0  0  0  0
  -25.4717   32.2009  -41.9589 N   0  0  0  0  0  0
  -25.4496   32.4262  -40.5109 C   0  0  0  0  0  0
  -25.6480   31.1524  -39.6645 C   0  0  0  0  0  0
  -26.9218   30.3478  -39.9968 C   0  0  0  0  0  0
  -27.2484   29.3016  -38.9187 C   0  0  0  0  0  0
  -28.4774   28.4358  -39.2463 C   0  0  0  0  0  0
  -28.9522   27.5894  -38.0416 C   0  0  0  0  0  0
  -29.9450   26.4690  -38.3810 C   0  0  0  0  0  0
  -30.5212   26.4690  -39.4770 O   0  0  0  0  0  0
  -30.1758   25.5520  -37.4283 N   0  0  0  0  0  0
  -31.0130   24.4690  -37.7330 O   0  0  0  0  0  0
  -26.7817   31.6140  -44.1846 H   0  0  0  0  0  0
  -21.0073   30.9009  -49.1313 H   0  0  0  0  0  0
  -22.4810   30.0895  -49.6466 H   0  0  0  0  0  0
  -22.3258   31.8545  -49.8057 H   0  0  0  0  0  0
  -24.6433   31.2071  -49.7371 H   0  0  0  0  0  0
  -27.0130   31.3341  -49.2071 H   0  0  0  0  0  0
  -27.8130   31.4919  -46.8737 H   0  0  0  0  0  0
  -22.6626   31.3160  -44.9083 H   0  0  0  0  0  0
  -26.2207   32.6419  -42.4668 H   0  0  0  0  0  0
  -26.2695   33.1139  -40.3000 H   0  0  0  0  0  0
  -24.5338   32.9430  -40.2121 H   0  0  0  0  0  0
  -25.6660   31.4542  -38.6155 H   0  0  0  0  0  0
  -24.7726   30.5082  -39.7642 H   0  0  0  0  0  0
  -26.8009   29.8594  -40.9652 H   0  0  0  0  0  0
  -27.7680   31.0287  -40.0990 H   0  0  0  0  0  0
  -27.4130   29.8249  -37.9810 H   0  0  0  0  0  0
  -26.3839   28.6564  -38.7553 H   0  0  0  0  0  0
  -28.2057   27.7820  -40.0738 H   0  0  0  0  0  0
  -29.2953   29.0689  -39.5952 H   0  0  0  0  0  0
  -29.4130   28.2381  -37.2945 H   0  0  0  0  0  0
  -28.0775   27.1370  -37.5810 H   0  0  0  0  0  0
  -29.7519   25.4875  -36.5118 H   0  0  0  0  0  0
  -30.4072   23.7145  -37.7932 H   0  0  0  0  0  0
  1  2  1  0  0  0
  1 26  1  0  0  0
  1 27  1  0  0  0
  1 28  1  0  0  0
  2  3  1  0  0  0
  3  8  1  0  0  0
  3  4  2  0  0  0
  4  5  1  0  0  0
  4 29  1  0  0  0
  5  6  2  0  0  0
  5 30  1  0  0  0
  6  7  1  0  0  0
  6 31  1  0  0  0
  7 11  1  0  0  0
  7  8  2  0  0  0
  8  9  1  0  0  0
  9 10  2  0  0  0
  9 32  1  0  0  0
 10 11  1  0  0  0
 10 12  1  0  0  0
 11 25  1  0  0  0
 12 13  2  0  0  0
 12 14  1  0  0  0
 14 15  1  0  0  0
 14 33  1  0  0  0
 15 16  1  0  0  0
 15 34  1  0  0  0
 15 35  1  0  0  0
 16 17  1  0  0  0
 16 36  1  0  0  0
 16 37  1  0  0  0
 17 18  1  0  0  0
 17 38  1  0  0  0
 17 39  1  0  0  0
 18 19  1  0  0  0
 18 40  1  0  0  0
 18 41  1  0  0  0
 19 20  1  0  0  0
 19 42  1  0  0  0
 19 43  1  0  0  0
 20 21  1  0  0  0
 20 44  1  0  0  0
 20 45  1  0  0  0
 21 22  2  0  0  0
 21 23  1  0  0  0
 23 24  1  0  0  0
 23 46  1  0  0  0
 24 47  1  0  0  0
M  END
> <s_m_entry_id>
53611

> <s_m_entry_name>
ligand_docking-pose.104

> <s_m_Source_Path>
/home/csk/Desktop/cluster/DUD-E-result/hdac8

> <s_m_Source_File>
ligand_docking-pose.sdf

> <i_m_Source_File_Index>
104

> <i_lp_mmshare_version>
53161

> <r_lp_tautomer_probability>
1

> <s_lp_Force_Field>
OPLS_2005

> <r_lp_Energy>
16.739316

> <b_lp_Chiralities_Consistent>
1

> <s_lp_Variant>
87210-1

> <s_i_glide_gridfile>
glide-grid_3f07

> <i_i_glide_lignum>
366

> <i_i_glide_rotatable_bonds>
12

> <r_i_docking_score>
-7.24917728689643

> <r_i_glide_ligand_efficiency>
-0.302049053620685

> <r_i_glide_ligand_efficiency_sa>
-0.871260234669413

> <r_i_glide_ligand_efficiency_ln>
-1.7350607678247

> <r_i_glide_gscore>
-7.24917728689643

> <r_i_glide_lipo>
-0.982189110942632

> <r_i_glide_hbond>
-0.304

> <r_i_glide_metal>
-2.3

> <r_i_glide_rewards>
-1.20198396452571

> <r_i_glide_evdw>
-27.4705562591553

> <r_i_glide_ecoul>
-17.7328472137451

> <r_i_glide_erotb>
1.69571382210122

> <r_i_glide_esite>
-0.123263138509771

> <r_i_glide_emodel>
-67.4684474002481

> <r_i_glide_energy>
-45.2034034729004

> <r_i_glide_einternal>
4.59379959106445

> <i_i_glide_confnum>
215

> <i_i_glide_posenum>
179

> <r_i_glide_eff_state_penalty>
0

> <i_f3d_flags>
0

> <s_user_duplicate_titles>
87210

> <s_m_subgroup_title>
dock_pv

> <s_m_subgroupid>
dock_pv1

> <b_m_subgroup_collapsed>
0

$$$$
236368
                    3D
 Schrodinger Suite 2021-1.
 46 47  0  0  1  0            999 V2000
  -25.4980   31.2693  -50.2698 C   0  0  0  0  0  0
  -26.6123   31.2705  -49.4383 C   0  0  0  0  0  0
  -26.4405   31.2741  -48.0570 C   0  0  0  0  0  0
  -25.1570   31.2693  -47.4849 C   0  0  0  0  0  0
  -24.0487   31.2689  -48.3483 C   0  0  0  0  0  0
  -24.2157   31.2680  -49.7306 C   0  0  0  0  0  0
  -24.9741   31.2475  -45.9952 C   0  0  0  0  0  0
  -23.8121   31.7542  -45.3974 C   0  0  0  0  0  0
  -23.6468   31.7378  -44.0150 C   0  0  0  0  0  0
  -24.6449   31.2197  -43.1820 C   0  0  0  0  0  0
  -25.8057   30.7010  -43.7753 C   0  0  0  0  0  0
  -25.9622   30.7144  -45.1571 C   0  0  0  0  0  0
  -24.4701   31.2695  -41.6768 C   0  0  0  0  0  0
  -23.5297   31.8754  -41.1652 O   0  0  0  0  0  0
  -25.4031   30.6345  -40.9490 N   0  0  0  0  0  0
  -25.5653   30.7218  -39.4995 C   0  0  0  0  0  0
  -26.6111   29.7168  -38.9676 C   0  0  0  0  0  0
  -27.8583   29.5306  -39.8635 C   0  0  0  0  0  0
  -28.9988   28.7171  -39.2314 C   0  0  0  0  0  0
  -28.6005   27.2948  -38.7745 C   0  0  0  0  0  0
  -29.8129   26.4689  -38.3292 C   0  0  0  0  0  0
  -30.6128   26.0690  -39.1809 O   0  0  0  0  0  0
  -29.9422   26.2545  -37.0114 N   0  0  0  0  0  0
  -31.0433   25.5185  -36.5537 O   0  0  0  0  0  0
  -25.6320   31.2761  -51.3407 H   0  0  0  0  0  0
  -27.6073   31.2751  -49.8611 H   0  0  0  0  0  0
  -27.3265   31.2919  -47.4406 H   0  0  0  0  0  0
  -23.0417   31.2496  -47.9589 H   0  0  0  0  0  0
  -23.3523   31.2687  -50.3803 H   0  0  0  0  0  0
  -23.0256   32.1893  -45.9944 H   0  0  0  0  0  0
  -22.7398   32.1530  -43.5975 H   0  0  0  0  0  0
  -26.6146   30.2994  -43.1843 H   0  0  0  0  0  0
  -26.8703   30.2981  -45.5653 H   0  0  0  0  0  0
  -26.0854   30.0789  -41.4367 H   0  0  0  0  0  0
  -25.8785   31.7402  -39.2591 H   0  0  0  0  0  0
  -24.6033   30.5467  -39.0120 H   0  0  0  0  0  0
  -26.9152   30.0303  -37.9690 H   0  0  0  0  0  0
  -26.1300   28.7499  -38.8346 H   0  0  0  0  0  0
  -27.5670   29.0466  -40.7969 H   0  0  0  0  0  0
  -28.2474   30.5116  -40.1417 H   0  0  0  0  0  0
  -29.7988   28.6639  -39.9735 H   0  0  0  0  0  0
  -29.3974   29.2742  -38.3815 H   0  0  0  0  0  0
  -27.8691   27.3504  -37.9682 H   0  0  0  0  0  0
  -28.1034   26.7550  -39.5801 H   0  0  0  0  0  0
  -29.3476   26.6069  -36.2679 H   0  0  0  0  0  0
  -31.5865   26.1728  -36.1047 H   0  0  0  0  0  0
  1  6  1  0  0  0
  1  2  2  0  0  0
  1 25  1  0  0  0
  2  3  1  0  0  0
  2 26  1  0  0  0
  3  4  2  0  0  0
  3 27  1  0  0  0
  4  5  1  0  0  0
  4  7  1  0  0  0
  5  6  2  0  0  0
  5 28  1  0  0  0
  6 29  1  0  0  0
  7 12  1  0  0  0
  7  8  2  0  0  0
  8  9  1  0  0  0
  8 30  1  0  0  0
  9 10  2  0  0  0
  9 31  1  0  0  0
 10 11  1  0  0  0
 10 13  1  0  0  0
 11 12  2  0  0  0
 11 32  1  0  0  0
 12 33  1  0  0  0
 13 14  2  0  0  0
 13 15  1  0  0  0
 15 16  1  0  0  0
 15 34  1  0  0  0
 16 17  1  0  0  0
 16 35  1  0  0  0
 16 36  1  0  0  0
 17 18  1  0  0  0
 17 37  1  0  0  0
 17 38  1  0  0  0
 18 19  1  0  0  0
 18 39  1  0  0  0
 18 40  1  0  0  0
 19 20  1  0  0  0
 19 41  1  0  0  0
 19 42  1  0  0  0
 20 21  1  0  0  0
 20 43  1  0  0  0
 20 44  1  0  0  0
 21 22  2  0  0  0
 21 23  1  0  0  0
 23 24  1  0  0  0
 23 45  1  0  0  0
 24 46  1  0  0  0
M  END
> <s_m_entry_id>
53612

> <s_m_entry_name>
ligand_docking-pose.105

> <s_m_Source_Path>
/home/csk/Desktop/cluster/DUD-E-result/hdac8

> <s_m_Source_File>
ligand_docking-pose.sdf

> <i_m_Source_File_Index>
105

> <i_lp_mmshare_version>
53161

> <r_lp_tautomer_probability>
1

> <s_lp_Force_Field>
OPLS_2005

> <r_lp_Energy>
29.772965

> <b_lp_Chiralities_Consistent>
1

> <s_lp_Variant>
236368-1

> <s_i_glide_gridfile>
glide-grid_3f07

> <i_i_glide_lignum>
85

> <i_i_glide_rotatable_bonds>
11

> <r_i_docking_score>
-7.24851064375107

> <r_i_glide_ligand_efficiency>
-0.302021276822961

> <r_i_glide_ligand_efficiency_sa>
-0.871180112520335

> <r_i_glide_ligand_efficiency_ln>
-1.73490120952975

> <r_i_glide_gscore>
-7.24851064375107

> <r_i_glide_lipo>
-1.23369746006522

> <r_i_glide_hbond>
-0.529907775424855

> <r_i_glide_metal>
-2.3

> <r_i_glide_rewards>
-1.2634093813644

> <r_i_glide_evdw>
-31.9242973327637

> <r_i_glide_ecoul>
-13.0796194076538

> <r_i_glide_erotb>
1.76044805888323

> <r_i_glide_esite>
-0.12378630799357

> <r_i_glide_emodel>
-66.4516276353589

> <r_i_glide_energy>
-45.0039167404175

> <r_i_glide_einternal>
6.73137617111206

> <i_i_glide_confnum>
58

> <i_i_glide_posenum>
391

> <r_i_glide_eff_state_penalty>
0

> <i_f3d_flags>
0

> <s_user_duplicate_titles>
236368

> <s_m_subgroup_title>
dock_pv

> <s_m_subgroupid>
dock_pv1

> <b_m_subgroup_collapsed>
0

$$$$
236557
                    3D
 Schrodinger Suite 2021-1.
 47 47  0  0  1  0            999 V2000
  -22.3327   31.2986  -47.9246 C   0  0  0  0  0  0
  -23.7754   31.2690  -47.6740 N   0  0  0  0  0  0
  -24.6443   31.6691  -48.7821 C   0  0  0  0  0  0
  -24.2734   31.2690  -46.3399 C   0  0  0  0  0  0
  -25.6422   31.4305  -46.0755 C   0  0  0  0  0  0
  -26.1255   31.4661  -44.7708 C   0  0  0  0  0  0
  -25.2563   31.3402  -43.6805 C   0  0  0  0  0  0
  -23.8916   31.1400  -43.9369 C   0  0  0  0  0  0
  -23.4130   31.1041  -45.2436 C   0  0  0  0  0  0
  -25.8033   31.4575  -42.2711 C   0  0  0  0  0  0
  -27.0127   31.5982  -42.0753 O   0  0  0  0  0  0
  -24.9067   31.4340  -41.2662 N   0  0  0  0  0  0
  -25.1959   31.6691  -39.8493 C   0  0  0  0  0  0
  -25.6113   30.4105  -39.0624 C   0  0  0  0  0  0
  -26.9168   29.7394  -39.5376 C   0  0  0  0  0  0
  -27.4431   28.7133  -38.5273 C   0  0  0  0  0  0
  -28.7265   27.9812  -38.9740 C   0  0  0  0  0  0
  -29.4097   27.2743  -37.7793 C   0  0  0  0  0  0
  -30.3619   26.1123  -38.0829 C   0  0  0  0  0  0
  -30.9248   26.0690  -39.1810 O   0  0  0  0  0  0
  -30.5541   25.2306  -37.0884 N   0  0  0  0  0  0
  -31.4130   24.1451  -37.3082 O   0  0  0  0  0  0
  -21.9020   32.2229  -47.5370 H   0  0  0  0  0  0
  -21.8258   30.4690  -47.4324 H   0  0  0  0  0  0
  -22.0979   31.2424  -48.9882 H   0  0  0  0  0  0
  -25.5485   31.0607  -48.8167 H   0  0  0  0  0  0
  -24.9506   32.7093  -48.6623 H   0  0  0  0  0  0
  -24.1466   31.5788  -49.7483 H   0  0  0  0  0  0
  -26.3587   31.5505  -46.8724 H   0  0  0  0  0  0
  -27.1858   31.6157  -44.6187 H   0  0  0  0  0  0
  -23.1745   31.0303  -43.1370 H   0  0  0  0  0  0
  -22.3514   30.9656  -45.3804 H   0  0  0  0  0  0
  -23.9326   31.3353  -41.5017 H   0  0  0  0  0  0
  -25.9806   32.4251  -39.7658 H   0  0  0  0  0  0
  -24.3099   32.1072  -39.3870 H   0  0  0  0  0  0
  -25.7238   30.7066  -38.0179 H   0  0  0  0  0  0
  -24.7970   29.6840  -39.0750 H   0  0  0  0  0  0
  -26.7533   29.2556  -40.5017 H   0  0  0  0  0  0
  -27.6816   30.5008  -39.6970 H   0  0  0  0  0  0
  -27.6150   29.2231  -37.5810 H   0  0  0  0  0  0
  -26.6632   27.9846  -38.3171 H   0  0  0  0  0  0
  -28.4557   27.2645  -39.7494 H   0  0  0  0  0  0
  -29.4130   28.6943  -39.4300 H   0  0  0  0  0  0
  -29.9150   28.0052  -37.1483 H   0  0  0  0  0  0
  -28.6130   26.8690  -37.1810 H   0  0  0  0  0  0
  -30.1152   25.2165  -36.1771 H   0  0  0  0  0  0
  -30.8119   23.4062  -37.4736 H   0  0  0  0  0  0
  1  2  1  0  0  0
  1 23  1  0  0  0
  1 24  1  0  0  0
  1 25  1  0  0  0
  2  3  1  0  0  0
  2  4  1  0  0  0
  3 26  1  0  0  0
  3 27  1  0  0  0
  3 28  1  0  0  0
  4  9  1  0  0  0
  4  5  2  0  0  0
  5  6  1  0  0  0
  5 29  1  0  0  0
  6  7  2  0  0  0
  6 30  1  0  0  0
  7  8  1  0  0  0
  7 10  1  0  0  0
  8  9  2  0  0  0
  8 31  1  0  0  0
  9 32  1  0  0  0
 10 11  2  0  0  0
 10 12  1  0  0  0
 12 13  1  0  0  0
 12 33  1  0  0  0
 13 14  1  0  0  0
 13 34  1  0  0  0
 13 35  1  0  0  0
 14 15  1  0  0  0
 14 36  1  0  0  0
 14 37  1  0  0  0
 15 16  1  0  0  0
 15 38  1  0  0  0
 15 39  1  0  0  0
 16 17  1  0  0  0
 16 40  1  0  0  0
 16 41  1  0  0  0
 17 18  1  0  0  0
 17 42  1  0  0  0
 17 43  1  0  0  0
 18 19  1  0  0  0
 18 44  1  0  0  0
 18 45  1  0  0  0
 19 20  2  0  0  0
 19 21  1  0  0  0
 21 22  1  0  0  0
 21 46  1  0  0  0
 22 47  1  0  0  0
M  END
> <s_m_entry_id>
53614

> <s_m_entry_name>
ligand_docking-pose.107

> <s_m_Source_Path>
/home/csk/Desktop/cluster/DUD-E-result/hdac8

> <s_m_Source_File>
ligand_docking-pose.sdf

> <i_m_Source_File_Index>
107

> <i_lp_mmshare_version>
53161

> <r_lp_tautomer_probability>
1

> <s_lp_Force_Field>
OPLS_2005

> <r_lp_Energy>
23.182467

> <b_lp_Chiralities_Consistent>
1

> <s_lp_Variant>
236557-1

> <s_i_glide_gridfile>
glide-grid_3f07

> <i_i_glide_lignum>
354

> <i_i_glide_rotatable_bonds>
12

> <r_i_docking_score>
-7.2398133996393

> <r_i_glide_ligand_efficiency>
-0.329082427256332

> <r_i_glide_ligand_efficiency_sa>
-0.922101903249696

> <r_i_glide_ligand_efficiency_ln>
-1.76967447348198

> <r_i_glide_gscore>
-7.2398133996393

> <r_i_glide_lipo>
-1.25603402829479

> <r_i_glide_hbond>
-0.23294725367468

> <r_i_glide_metal>
-2.3

> <r_i_glide_rewards>
-1.35847854035958

> <r_i_glide_evdw>
-29.8248634338379

> <r_i_glide_ecoul>
-16.3277645111084

> <r_i_glide_erotb>
1.95645986344681

> <r_i_glide_esite>
-0.108405592398903

> <r_i_glide_emodel>
-67.8681161260948

> <r_i_glide_energy>
-46.1526279449463

> <r_i_glide_einternal>
8.03609180450439

> <i_i_glide_confnum>
45

> <i_i_glide_posenum>
102

> <r_i_glide_eff_state_penalty>
0

> <i_f3d_flags>
0

> <s_user_duplicate_titles>
236557

> <s_m_subgroup_title>
dock_pv

> <s_m_subgroupid>
dock_pv1

> <b_m_subgroup_collapsed>
0

$$$$
238264
                    3D
 Schrodinger Suite 2021-1.
 46 47  0  0  1  0            999 V2000
  -30.5226   37.1916  -42.2744 C   0  0  0  0  0  0
  -29.4088   37.5990  -41.5433 C   0  0  0  0  0  0
  -28.1637   37.0344  -41.8065 C   0  0  0  0  0  0
  -28.0363   36.0383  -42.7818 C   0  0  0  0  0  0
  -29.1615   35.6421  -43.5127 C   0  0  0  0  0  0
  -30.4038   36.2167  -43.2616 C   0  0  0  0  0  0
  -26.7009   35.3461  -43.0695 C   0  0  0  0  0  0
  -25.6059   35.3876  -41.9669 C   0  0  0  0  0  0
  -25.9433   34.8632  -40.5415 C   0  0  0  0  0  0
  -26.8703   33.6436  -40.4628 C   0  0  0  0  0  0
  -28.0505   33.7827  -40.7806 O   0  0  0  0  0  0
  -26.3439   32.4974  -39.9810 N   0  0  0  0  0  0
  -26.9837   31.2524  -39.8221 C   0  0  0  0  0  0
  -26.4100   30.3449  -38.9279 C   0  0  0  0  0  0
  -27.0150   29.1073  -38.7057 C   0  0  0  0  0  0
  -28.1843   28.7655  -39.3888 C   0  0  0  0  0  0
  -28.7544   29.6689  -40.2854 C   0  0  0  0  0  0
  -28.1542   30.8978  -40.5060 C   0  0  0  0  0  0
  -28.8218   27.3966  -39.2154 C   0  0  0  0  0  0
  -29.4113   27.1294  -37.8150 C   0  0  0  0  0  0
  -30.4063   25.9680  -37.7582 C   0  0  0  0  0  0
  -31.0166   25.6633  -38.7811 O   0  0  0  0  0  0
  -30.5424   25.3149  -36.5931 N   0  0  0  0  0  0
  -31.4127   24.2140  -36.5559 O   0  0  0  0  0  0
  -31.4852   37.6407  -42.0763 H   0  0  0  0  0  0
  -29.5083   38.3485  -40.7733 H   0  0  0  0  0  0
  -27.3102   37.3687  -41.2369 H   0  0  0  0  0  0
  -29.0759   34.8838  -44.2770 H   0  0  0  0  0  0
  -31.2685   35.9090  -43.8308 H   0  0  0  0  0  0
  -26.8982   34.2988  -43.3107 H   0  0  0  0  0  0
  -26.2992   35.7852  -43.9825 H   0  0  0  0  0  0
  -24.7526   34.8167  -42.3361 H   0  0  0  0  0  0
  -25.2273   36.4082  -41.8816 H   0  0  0  0  0  0
  -25.0171   34.6852  -39.9920 H   0  0  0  0  0  0
  -26.4490   35.6485  -39.9812 H   0  0  0  0  0  0
  -25.4239   32.5795  -39.5692 H   0  0  0  0  0  0
  -25.5046   30.6001  -38.3928 H   0  0  0  0  0  0
  -26.5792   28.4169  -37.9984 H   0  0  0  0  0  0
  -29.6551   29.4242  -40.8284 H   0  0  0  0  0  0
  -28.6133   31.5576  -41.2187 H   0  0  0  0  0  0
  -29.5883   27.2874  -39.9810 H   0  0  0  0  0  0
  -28.0584   26.6487  -39.4450 H   0  0  0  0  0  0
  -28.5885   26.8692  -37.1810 H   0  0  0  0  0  0
  -29.8390   28.0296  -37.3784 H   0  0  0  0  0  0
  -30.0573   25.4757  -35.7185 H   0  0  0  0  0  0
  -30.8306   23.4565  -36.6751 H   0  0  0  0  0  0
  1  6  1  0  0  0
  1  2  2  0  0  0
  1 25  1  0  0  0
  2  3  1  0  0  0
  2 26  1  0  0  0
  3  4  2  0  0  0
  3 27  1  0  0  0
  4  5  1  0  0  0
  4  7  1  0  0  0
  5  6  2  0  0  0
  5 28  1  0  0  0
  6 29  1  0  0  0
  7  8  1  0  0  0
  7 30  1  0  0  0
  7 31  1  0  0  0
  8  9  1  0  0  0
  8 32  1  0  0  0
  8 33  1  0  0  0
  9 10  1  0  0  0
  9 34  1  0  0  0
  9 35  1  0  0  0
 10 11  2  0  0  0
 10 12  1  0  0  0
 12 13  1  0  0  0
 12 36  1  0  0  0
 13 18  1  0  0  0
 13 14  2  0  0  0
 14 15  1  0  0  0
 14 37  1  0  0  0
 15 16  2  0  0  0
 15 38  1  0  0  0
 16 17  1  0  0  0
 16 19  1  0  0  0
 17 18  2  0  0  0
 17 39  1  0  0  0
 18 40  1  0  0  0
 19 20  1  0  0  0
 19 41  1  0  0  0
 19 42  1  0  0  0
 20 21  1  0  0  0
 20 43  1  0  0  0
 20 44  1  0  0  0
 21 22  2  0  0  0
 21 23  1  0  0  0
 23 24  1  0  0  0
 23 45  1  0  0  0
 24 46  1  0  0  0
M  END
> <s_m_entry_id>
53616

> <s_m_entry_name>
ligand_docking-pose.109

> <s_m_Source_Path>
/home/csk/Desktop/cluster/DUD-E-result/hdac8

> <s_m_Source_File>
ligand_docking-pose.sdf

> <i_m_Source_File_Index>
109

> <i_lp_mmshare_version>
53161

> <r_lp_tautomer_probability>
1

> <s_lp_Force_Field>
OPLS_2005

> <r_lp_Energy>
29.691743

> <b_lp_Chiralities_Consistent>
1

> <s_lp_Variant>
238264-1

> <s_i_glide_gridfile>
glide-grid_3f07

> <i_i_glide_lignum>
122

> <i_i_glide_rotatable_bonds>
11

> <r_i_docking_score>
-7.20926591981301

> <r_i_glide_ligand_efficiency>
-0.300386079992209

> <r_i_glide_ligand_efficiency_sa>
-0.866463388672291

> <r_i_glide_ligand_efficiency_ln>
-1.72550814626834

> <r_i_glide_gscore>
-7.20926591981301

> <r_i_glide_lipo>
-0.967531355128199

> <r_i_glide_hbond>
-0.0350411954246676

> <r_i_glide_metal>
-2.25214502737701

> <r_i_glide_rewards>
-1.45670090815077

> <r_i_glide_evdw>
-33.3741569519043

> <r_i_glide_ecoul>
-14.3901844024658

> <r_i_glide_erotb>
1.58440325299491

> <r_i_glide_esite>
-0.255015178762186

> <r_i_glide_emodel>
-69.3562019514301

> <r_i_glide_energy>
-47.7643413543701

> <r_i_glide_einternal>
9.87003707885742

> <i_i_glide_confnum>
2

> <i_i_glide_posenum>
388

> <r_i_glide_eff_state_penalty>
0

> <i_f3d_flags>
0

> <s_user_duplicate_titles>
238264

> <s_m_subgroup_title>
dock_pv

> <s_m_subgroupid>
dock_pv1

> <b_m_subgroup_collapsed>
0

$$$$
86971
                    3D
 Schrodinger Suite 2021-1.
 51 52  0  0  1  0            999 V2000
  -21.7025   30.6731  -49.6443 C   0  0  0  0  0  0
  -23.0793   31.0448  -49.6271 O   0  0  0  0  0  0
  -23.6976   31.3022  -48.4181 C   0  0  0  0  0  0
  -23.0331   31.2659  -47.1832 C   0  0  0  0  0  0
  -23.7974   31.4637  -46.0299 C   0  0  0  0  0  0
  -25.1908   31.7448  -46.0729 C   0  0  0  0  0  0
  -25.6258   31.8843  -44.7116 C   0  0  0  0  0  0
  -24.5161   31.7363  -43.8860 C   0  0  0  0  0  0
  -23.4421   31.4392  -44.6969 N   0  0  0  0  0  0
  -24.4086   31.7751  -42.4470 C   0  0  0  0  0  0
  -23.4481   31.2707  -41.8642 O   0  0  0  0  0  0
  -25.4235   32.4034  -41.8260 N   0  0  0  0  0  0
  -25.5048   32.6384  -40.3811 C   0  0  0  0  0  0
  -25.7787   31.3768  -39.5384 C   0  0  0  0  0  0
  -27.1195   30.6699  -39.8262 C   0  0  0  0  0  0
  -27.2429   29.3599  -39.0330 C   0  0  0  0  0  0
  -28.5826   28.6217  -39.2097 C   0  0  0  0  0  0
  -28.5009   27.2079  -38.5973 C   0  0  0  0  0  0
  -29.8144   26.4221  -38.5939 C   0  0  0  0  0  0
  -30.5627   26.4690  -39.5793 O   0  0  0  0  0  0
  -30.0793   25.6713  -37.5122 N   0  0  0  0  0  0
  -31.2130   24.8474  -37.5278 O   0  0  0  0  0  0
  -25.8204   31.8332  -47.3256 C   0  0  0  0  0  0
  -25.0582   31.5986  -48.4782 C   0  0  0  0  0  0
  -27.1649   32.1482  -47.2915 O   0  0  0  0  0  0
  -27.8127   32.4853  -48.5131 C   0  0  0  0  0  0
  -22.5219   31.2692  -44.3141 H   0  0  0  0  0  0
  -21.3913   30.4884  -50.6724 H   0  0  0  0  0  0
  -21.0666   31.4656  -49.2471 H   0  0  0  0  0  0
  -21.5268   29.7564  -49.0788 H   0  0  0  0  0  0
  -21.9776   31.0583  -47.1119 H   0  0  0  0  0  0
  -26.6355   32.0876  -44.3864 H   0  0  0  0  0  0
  -26.1327   32.8316  -42.3996 H   0  0  0  0  0  0
  -26.3244   33.3422  -40.2308 H   0  0  0  0  0  0
  -24.6044   33.1453  -40.0225 H   0  0  0  0  0  0
  -25.7469   31.6621  -38.4856 H   0  0  0  0  0  0
  -24.9528   30.6766  -39.6725 H   0  0  0  0  0  0
  -27.2009   30.4529  -40.8924 H   0  0  0  0  0  0
  -27.9482   31.3345  -39.5806 H   0  0  0  0  0  0
  -27.0814   29.5608  -37.9735 H   0  0  0  0  0  0
  -26.4282   28.6992  -39.3359 H   0  0  0  0  0  0
  -28.8167   28.5501  -40.2723 H   0  0  0  0  0  0
  -29.3911   29.1996  -38.7506 H   0  0  0  0  0  0
  -28.1114   27.2701  -37.5816 H   0  0  0  0  0  0
  -27.7834   26.6185  -39.1675 H   0  0  0  0  0  0
  -29.5116   25.5559  -36.6822 H   0  0  0  0  0  0
  -30.8491   23.9549  -37.5809 H   0  0  0  0  0  0
  -25.5207   31.6339  -49.4520 H   0  0  0  0  0  0
  -28.8528   32.7437  -48.3121 H   0  0  0  0  0  0
  -27.3439   33.3506  -48.9829 H   0  0  0  0  0  0
  -27.8104   31.6596  -49.2236 H   0  0  0  0  0  0
  1  2  1  0  0  0
  1 28  1  0  0  0
  1 29  1  0  0  0
  1 30  1  0  0  0
  2  3  1  0  0  0
  3 24  1  0  0  0
  3  4  2  0  0  0
  4  5  1  0  0  0
  4 31  1  0  0  0
  5  9  1  0  0  0
  5  6  2  0  0  0
  6  7  1  0  0  0
  6 23  1  0  0  0
  7  8  2  0  0  0
  7 32  1  0  0  0
  8  9  1  0  0  0
  8 10  1  0  0  0
  9 27  1  0  0  0
 10 11  2  0  0  0
 10 12  1  0  0  0
 12 13  1  0  0  0
 12 33  1  0  0  0
 13 14  1  0  0  0
 13 34  1  0  0  0
 13 35  1  0  0  0
 14 15  1  0  0  0
 14 36  1  0  0  0
 14 37  1  0  0  0
 15 16  1  0  0  0
 15 38  1  0  0  0
 15 39  1  0  0  0
 16 17  1  0  0  0
 16 40  1  0  0  0
 16 41  1  0  0  0
 17 18  1  0  0  0
 17 42  1  0  0  0
 17 43  1  0  0  0
 18 19  1  0  0  0
 18 44  1  0  0  0
 18 45  1  0  0  0
 19 20  2  0  0  0
 19 21  1  0  0  0
 21 22  1  0  0  0
 21 46  1  0  0  0
 22 47  1  0  0  0
 23 24  2  0  0  0
 23 25  1  0  0  0
 24 48  1  0  0  0
 25 26  1  0  0  0
 26 49  1  0  0  0
 26 50  1  0  0  0
 26 51  1  0  0  0
M  END
> <s_m_entry_id>
53617

> <s_m_entry_name>
ligand_docking-pose.110

> <s_m_Source_Path>
/home/csk/Desktop/cluster/DUD-E-result/hdac8

> <s_m_Source_File>
ligand_docking-pose.sdf

> <i_m_Source_File_Index>
110

> <i_lp_mmshare_version>
53161

> <r_lp_tautomer_probability>
1

> <s_lp_Force_Field>
OPLS_2005

> <r_lp_Energy>
24.155353

> <b_lp_Chiralities_Consistent>
1

> <s_lp_Variant>
86971-1

> <s_i_glide_gridfile>
glide-grid_3f07

> <i_i_glide_lignum>
362

> <i_i_glide_rotatable_bonds>
13

> <r_i_docking_score>
-7.20017348019023

> <r_i_glide_ligand_efficiency>
-0.276929749238086

> <r_i_glide_ligand_efficiency_sa>
-0.820403292451884

> <r_i_glide_ligand_efficiency_ln>
-1.69093711612649

> <r_i_glide_gscore>
-7.20017348019023

> <r_i_glide_lipo>
-0.831272360569642

> <r_i_glide_hbond>
-0.32

> <r_i_glide_metal>
-2.3

> <r_i_glide_rewards>
-1.03433004509894

> <r_i_glide_evdw>
-29.4352493286133

> <r_i_glide_ecoul>
-17.0304870605469

> <r_i_glide_erotb>
1.4548145886392

> <r_i_glide_esite>
-0.143050137648157

> <r_i_glide_emodel>
-69.784000009161

> <r_i_glide_energy>
-46.4657363891602

> <r_i_glide_einternal>
5.67427778244019

> <i_i_glide_confnum>
23

> <i_i_glide_posenum>
245

> <r_i_glide_eff_state_penalty>
0

> <i_f3d_flags>
0

> <s_user_duplicate_titles>
86971

> <s_m_subgroup_title>
dock_pv

> <s_m_subgroupid>
dock_pv1

> <b_m_subgroup_collapsed>
0

$$$$
331371
                    3D
 Schrodinger Suite 2021-1.
 48 49  0  0  1  0            999 V2000
  -27.0410   32.2745  -47.9176 C   0  0  0  0  0  0
  -25.8305   32.5044  -47.2699 C   0  0  0  0  0  0
  -25.7950   33.3355  -46.1534 C   0  0  0  0  0  0
  -26.9736   33.9149  -45.6679 C   0  0  0  0  0  0
  -28.1847   33.6816  -46.3271 C   0  0  0  0  0  0
  -28.2132   32.8690  -47.4573 C   0  0  0  0  0  0
  -26.9210   34.8606  -44.4668 C   0  0  0  0  0  0
  -26.6638   34.2362  -43.0953 C   0  0  0  0  0  0
  -27.2557   34.7629  -41.9380 C   0  0  0  0  0  0
  -26.8691   34.2252  -40.7044 C   0  0  0  0  0  0
  -25.9753   33.2101  -40.6474 N   0  0  0  0  0  0
  -25.4719   32.7328  -41.8093 C   0  0  0  0  0  0
  -25.7766   33.2061  -43.0403 N   0  0  0  0  0  0
  -24.3411   31.3762  -41.7328 S   0  0  0  0  0  0
  -23.9435   31.0482  -39.9803 C   0  0  0  0  0  0
  -25.0893   30.7243  -38.9979 C   0  0  0  0  0  0
  -26.2280   29.8440  -39.5545 C   0  0  0  0  0  0
  -27.3911   29.7322  -38.5601 C   0  0  0  0  0  0
  -28.5530   28.7985  -38.9496 C   0  0  0  0  0  0
  -28.3388   27.3143  -38.5717 C   0  0  0  0  0  0
  -29.6292   26.4690  -38.5805 C   0  0  0  0  0  0
  -30.3538   26.4713  -39.5805 O   0  0  0  0  0  0
  -29.9128   25.7427  -37.4888 N   0  0  0  0  0  0
  -31.0118   24.8693  -37.5355 O   0  0  0  0  0  0
  -27.4059   34.7891  -39.5811 O   0  0  0  0  0  0
  -27.0753   31.6384  -48.7902 H   0  0  0  0  0  0
  -24.9213   32.0499  -47.6353 H   0  0  0  0  0  0
  -24.8506   33.5248  -45.6634 H   0  0  0  0  0  0
  -29.1002   34.1389  -45.9799 H   0  0  0  0  0  0
  -29.1435   32.6993  -47.9795 H   0  0  0  0  0  0
  -27.8448   35.4397  -44.4255 H   0  0  0  0  0  0
  -26.1325   35.5925  -44.6463 H   0  0  0  0  0  0
  -27.9414   35.5957  -41.9881 H   0  0  0  0  0  0
  -23.3609   31.8860  -39.5939 H   0  0  0  0  0  0
  -23.2602   30.1999  -39.9918 H   0  0  0  0  0  0
  -25.5004   31.6585  -38.6148 H   0  0  0  0  0  0
  -24.6592   30.2341  -38.1229 H   0  0  0  0  0  0
  -25.8272   28.8692  -39.8001 H   0  0  0  0  0  0
  -26.6143   30.2588  -40.4860 H   0  0  0  0  0  0
  -27.7939   30.7363  -38.4394 H   0  0  0  0  0  0
  -27.0129   29.4490  -37.5808 H   0  0  0  0  0  0
  -28.7908   28.9043  -40.0095 H   0  0  0  0  0  0
  -29.4131   29.1718  -38.4002 H   0  0  0  0  0  0
  -27.8875   27.2691  -37.5812 H   0  0  0  0  0  0
  -27.6186   26.8632  -39.2544 H   0  0  0  0  0  0
  -29.3869   25.6812  -36.6274 H   0  0  0  0  0  0
  -30.6036   23.9944  -37.5816 H   0  0  0  0  0  0
  -26.8715   34.5146  -38.8232 H   0  0  0  0  0  0
  1  6  1  0  0  0
  1  2  2  0  0  0
  1 26  1  0  0  0
  2  3  1  0  0  0
  2 27  1  0  0  0
  3  4  2  0  0  0
  3 28  1  0  0  0
  4  5  1  0  0  0
  4  7  1  0  0  0
  5  6  2  0  0  0
  5 29  1  0  0  0
  6 30  1  0  0  0
  7  8  1  0  0  0
  7 31  1  0  0  0
  7 32  1  0  0  0
  8 13  1  0  0  0
  8  9  2  0  0  0
  9 10  1  0  0  0
  9 33  1  0  0  0
 10 11  2  0  0  0
 10 25  1  0  0  0
 11 12  1  0  0  0
 12 13  2  0  0  0
 12 14  1  0  0  0
 14 15  1  0  0  0
 15 16  1  0  0  0
 15 34  1  0  0  0
 15 35  1  0  0  0
 16 17  1  0  0  0
 16 36  1  0  0  0
 16 37  1  0  0  0
 17 18  1  0  0  0
 17 38  1  0  0  0
 17 39  1  0  0  0
 18 19  1  0  0  0
 18 40  1  0  0  0
 18 41  1  0  0  0
 19 20  1  0  0  0
 19 42  1  0  0  0
 19 43  1  0  0  0
 20 21  1  0  0  0
 20 44  1  0  0  0
 20 45  1  0  0  0
 21 22  2  0  0  0
 21 23  1  0  0  0
 23 24  1  0  0  0
 23 46  1  0  0  0
 24 47  1  0  0  0
 25 48  1  0  0  0
M  END
> <s_m_entry_id>
53619

> <s_m_entry_name>
ligand_docking-pose.112

> <s_m_Source_Path>
/home/csk/Desktop/cluster/DUD-E-result/hdac8

> <s_m_Source_File>
ligand_docking-pose.sdf

> <i_m_Source_File_Index>
112

> <i_lp_mmshare_version>
53161

> <r_lp_tautomer_probability>
0.0660144953277732

> <s_lp_Force_Field>
OPLS_2005

> <r_lp_Energy>
12.702013

> <b_lp_Chiralities_Consistent>
1

> <s_lp_Variant>
331371-3

> <s_i_glide_gridfile>
glide-grid_3f07

> <i_i_glide_lignum>
102

> <i_i_glide_rotatable_bonds>
13

> <r_i_docking_score>
-7.14673925594076

> <r_i_glide_ligand_efficiency>
-0.28586957023763

> <r_i_glide_ligand_efficiency_sa>
-0.835887693293247

> <r_i_glide_ligand_efficiency_ln>
-1.69399137415096

> <r_i_glide_gscore>
-7.14673925594076

> <r_i_glide_lipo>
-0.922302617849564

> <r_i_glide_hbond>
-0.384953968756319

> <r_i_glide_metal>
-2.3

> <r_i_glide_rewards>
-1.01082933531011

> <r_i_glide_evdw>
-26.4686126708984

> <r_i_glide_ecoul>
-17.8018093109131

> <r_i_glide_erotb>
1.61571773475091

> <r_i_glide_esite>
-0.150669038593791

> <r_i_glide_emodel>
-66.5307723389883

> <r_i_glide_energy>
-44.2704219818115

> <r_i_glide_einternal>
9.12217807769775

> <i_i_glide_confnum>
339

> <i_i_glide_posenum>
18

> <r_i_glide_eff_state_penalty>
0

> <i_f3d_flags>
0

> <s_user_duplicate_titles>
331371

> <s_m_subgroup_title>
dock_pv

> <s_m_subgroupid>
dock_pv1

> <b_m_subgroup_collapsed>
0

$$$$
240931
                    3D
 Schrodinger Suite 2021-1.
 41 42  0  0  1  0            999 V2000
  -27.3552   31.6481  -46.4555 C   0  0  0  0  0  0
  -26.1427   31.3867  -47.3460 C   0  0  0  0  0  0
  -26.3968   31.1722  -48.7062 C   0  0  0  0  0  0
  -25.3560   31.0130  -49.6161 C   0  0  0  0  0  0
  -24.0384   31.0670  -49.1767 C   0  0  0  0  0  0
  -23.7663   31.2699  -47.8254 C   0  0  0  0  0  0
  -24.8019   31.4159  -46.8831 C   0  0  0  0  0  0
  -24.3948   31.6819  -45.4581 C   0  0  0  0  0  0
  -23.3550   32.2990  -45.2122 O   0  0  0  0  0  0
  -25.1470   31.0621  -44.3625 C   0  0  0  0  0  0
  -24.9460   31.3887  -43.0670 C   0  0  0  0  0  0
  -25.6257   30.8327  -41.9144 C   0  0  0  0  0  0
  -26.8008   30.0758  -41.8677 C   0  0  0  0  0  0
  -27.0879   29.6776  -40.5654 C   0  0  0  0  0  0
  -26.1163   30.2594  -39.7706 N   0  0  0  0  0  0
  -25.2625   30.9635  -40.5858 C   0  0  0  0  0  0
  -26.0140   30.2341  -38.3278 C   0  0  0  0  0  0
  -28.1739   28.8221  -40.0897 C   0  0  0  0  0  0
  -28.2324   28.0129  -39.0046 C   0  0  0  0  0  0
  -29.3569   27.1378  -38.7450 C   0  0  0  0  0  0
  -30.2143   26.8629  -39.5811 O   0  0  0  0  0  0
  -29.4130   26.6326  -37.5139 N   0  0  0  0  0  0
  -30.3989   25.6694  -37.2221 O   0  0  0  0  0  0
  -27.1398   32.3892  -45.6858 H   0  0  0  0  0  0
  -28.1848   32.0604  -47.0326 H   0  0  0  0  0  0
  -27.6965   30.7274  -45.9825 H   0  0  0  0  0  0
  -27.4132   31.1532  -49.0727 H   0  0  0  0  0  0
  -25.5730   30.8710  -50.6644 H   0  0  0  0  0  0
  -23.2257   30.9607  -49.8808 H   0  0  0  0  0  0
  -22.7292   31.3116  -47.5177 H   0  0  0  0  0  0
  -25.8787   30.3176  -44.6341 H   0  0  0  0  0  0
  -24.1975   32.1257  -42.8035 H   0  0  0  0  0  0
  -27.3825   29.8070  -42.7352 H   0  0  0  0  0  0
  -24.4336   31.5013  -40.1460 H   0  0  0  0  0  0
  -25.4275   31.0855  -37.9778 H   0  0  0  0  0  0
  -27.0071   30.2796  -37.8830 H   0  0  0  0  0  0
  -25.5078   29.3151  -38.0350 H   0  0  0  0  0  0
  -29.0125   28.8576  -40.7717 H   0  0  0  0  0  0
  -27.4222   27.9635  -38.2922 H   0  0  0  0  0  0
  -28.8102   26.8516  -36.7250 H   0  0  0  0  0  0
  -29.9047   24.8438  -37.1553 H   0  0  0  0  0  0
  1  2  1  0  0  0
  1 24  1  0  0  0
  1 25  1  0  0  0
  1 26  1  0  0  0
  2  7  1  0  0  0
  2  3  2  0  0  0
  3  4  1  0  0  0
  3 27  1  0  0  0
  4  5  2  0  0  0
  4 28  1  0  0  0
  5  6  1  0  0  0
  5 29  1  0  0  0
  6  7  2  0  0  0
  6 30  1  0  0  0
  7  8  1  0  0  0
  8  9  2  0  0  0
  8 10  1  0  0  0
 10 11  2  0  0  0
 10 31  1  0  0  0
 11 12  1  0  0  0
 11 32  1  0  0  0
 12 16  2  0  0  0
 12 13  1  0  0  0
 13 14  2  0  0  0
 13 33  1  0  0  0
 14 15  1  0  0  0
 14 18  1  0  0  0
 15 16  1  0  0  0
 15 17  1  0  0  0
 16 34  1  0  0  0
 17 35  1  0  0  0
 17 36  1  0  0  0
 17 37  1  0  0  0
 18 19  2  0  0  0
 18 38  1  0  0  0
 19 20  1  0  0  0
 19 39  1  0  0  0
 20 21  2  0  0  0
 20 22  1  0  0  0
 22 23  1  0  0  0
 22 40  1  0  0  0
 23 41  1  0  0  0
M  END
> <s_m_entry_id>
53620

> <s_m_entry_name>
ligand_docking-pose.113

> <s_m_Source_Path>
/home/csk/Desktop/cluster/DUD-E-result/hdac8

> <s_m_Source_File>
ligand_docking-pose.sdf

> <i_m_Source_File_Index>
113

> <i_lp_mmshare_version>
53161

> <r_lp_tautomer_probability>
1

> <s_lp_Force_Field>
OPLS_2005

> <r_lp_Energy>
23.836277

> <b_lp_Chiralities_Consistent>
1

> <s_lp_Variant>
240931-1

> <s_i_glide_gridfile>
glide-grid_3f07

> <i_i_glide_lignum>
227

> <i_i_glide_rotatable_bonds>
7

> <r_i_docking_score>
-7.14272375844892

> <r_i_glide_ligand_efficiency>
-0.310553206889083

> <r_i_glide_ligand_efficiency_sa>
-0.883172009635816

> <r_i_glide_ligand_efficiency_ln>
-1.72717537143118

> <r_i_glide_gscore>
-7.14272375844892

> <r_i_glide_lipo>
-1.15354891677998

> <r_i_glide_hbond>
-0.608

> <r_i_glide_metal>
-1.67120677045808

> <r_i_glide_rewards>
-1.34314131432556

> <r_i_glide_evdw>
-25.8897113800049

> <r_i_glide_ecoul>
-13.5109329223633

> <r_i_glide_erotb>
1.15429875046944

> <r_i_glide_esite>
-0.2

> <r_i_glide_emodel>
-57.4766182092638

> <r_i_glide_energy>
-39.4006443023682

> <r_i_glide_einternal>
4.12792682647705

> <i_i_glide_confnum>
3

> <i_i_glide_posenum>
82

> <r_i_glide_eff_state_penalty>
0

> <i_f3d_flags>
0

> <s_user_duplicate_titles>
240931

> <s_m_subgroup_title>
dock_pv

> <s_m_subgroupid>
dock_pv1

> <b_m_subgroup_collapsed>
0

$$$$
86889
                    3D
 Schrodinger Suite 2021-1.
 43 44  0  0  1  0            999 V2000
  -23.7373   31.2692  -47.9130 C   0  0  0  0  0  0
  -25.1032   31.2693  -48.1915 C   0  0  0  0  0  0
  -26.0618   31.2691  -47.1769 C   0  0  0  0  0  0
  -25.5885   31.2824  -45.8595 C   0  0  0  0  0  0
  -24.1983   31.2823  -45.5469 C   0  0  0  0  0  0
  -23.2708   31.2690  -46.5986 C   0  0  0  0  0  0
  -24.0924   31.3194  -44.1172 C   0  0  0  0  0  0
  -25.3819   31.3534  -43.5913 C   0  0  0  0  0  0
  -26.2567   31.3158  -44.6556 N   0  0  0  0  0  0
  -25.8393   31.5311  -42.2338 C   0  0  0  0  0  0
  -27.0130   31.8182  -41.9924 O   0  0  0  0  0  0
  -24.8938   31.4036  -41.2850 N   0  0  0  0  0  0
  -25.1045   31.6491  -39.8549 C   0  0  0  0  0  0
  -25.5846   30.4175  -39.0602 C   0  0  0  0  0  0
  -26.9042   29.7711  -39.5415 C   0  0  0  0  0  0
  -27.4364   28.7345  -38.5415 C   0  0  0  0  0  0
  -28.7171   27.9910  -38.9857 C   0  0  0  0  0  0
  -29.3997   27.2868  -37.7873 C   0  0  0  0  0  0
  -30.3545   26.1252  -38.0802 C   0  0  0  0  0  0
  -30.9165   26.0690  -39.1771 O   0  0  0  0  0  0
  -30.5470   25.2533  -37.0773 N   0  0  0  0  0  0
  -31.4131   24.1690  -37.2831 O   0  0  0  0  0  0
  -27.2563   31.3534  -44.5145 H   0  0  0  0  0  0
  -23.0277   31.2683  -48.7283 H   0  0  0  0  0  0
  -25.4292   31.2700  -49.2219 H   0  0  0  0  0  0
  -27.1178   31.2722  -47.4059 H   0  0  0  0  0  0
  -22.2113   31.2701  -46.3935 H   0  0  0  0  0  0
  -23.1775   31.3621  -43.5444 H   0  0  0  0  0  0
  -23.9564   31.1659  -41.5673 H   0  0  0  0  0  0
  -25.8267   32.4606  -39.7345 H   0  0  0  0  0  0
  -24.1688   32.0175  -39.4295 H   0  0  0  0  0  0
  -25.7013   30.7297  -38.0212 H   0  0  0  0  0  0
  -24.7909   29.6691  -39.0525 H   0  0  0  0  0  0
  -26.7508   29.2987  -40.5131 H   0  0  0  0  0  0
  -27.6588   30.5457  -39.6884 H   0  0  0  0  0  0
  -27.6091   29.2397  -37.5929 H   0  0  0  0  0  0
  -26.6517   28.0098  -38.3343 H   0  0  0  0  0  0
  -28.4423   27.2694  -39.7557 H   0  0  0  0  0  0
  -29.4130   28.6947  -39.4442 H   0  0  0  0  0  0
  -29.9005   28.0189  -37.1551 H   0  0  0  0  0  0
  -28.6123   26.8690  -37.1869 H   0  0  0  0  0  0
  -30.1064   25.2461  -36.1665 H   0  0  0  0  0  0
  -30.8150   23.4241  -37.4345 H   0  0  0  0  0  0
  1  6  1  0  0  0
  1  2  2  0  0  0
  1 24  1  0  0  0
  2  3  1  0  0  0
  2 25  1  0  0  0
  3  4  2  0  0  0
  3 26  1  0  0  0
  4  9  1  0  0  0
  4  5  1  0  0  0
  5  6  2  0  0  0
  5  7  1  0  0  0
  6 27  1  0  0  0
  7  8  2  0  0  0
  7 28  1  0  0  0
  8  9  1  0  0  0
  8 10  1  0  0  0
  9 23  1  0  0  0
 10 11  2  0  0  0
 10 12  1  0  0  0
 12 13  1  0  0  0
 12 29  1  0  0  0
 13 14  1  0  0  0
 13 30  1  0  0  0
 13 31  1  0  0  0
 14 15  1  0  0  0
 14 32  1  0  0  0
 14 33  1  0  0  0
 15 16  1  0  0  0
 15 34  1  0  0  0
 15 35  1  0  0  0
 16 17  1  0  0  0
 16 36  1  0  0  0
 16 37  1  0  0  0
 17 18  1  0  0  0
 17 38  1  0  0  0
 17 39  1  0  0  0
 18 19  1  0  0  0
 18 40  1  0  0  0
 18 41  1  0  0  0
 19 20  2  0  0  0
 19 21  1  0  0  0
 21 22  1  0  0  0
 21 42  1  0  0  0
 22 43  1  0  0  0
M  END
> <s_m_entry_id>
53621

> <s_m_entry_name>
ligand_docking-pose.114

> <s_m_Source_Path>
/home/csk/Desktop/cluster/DUD-E-result/hdac8

> <s_m_Source_File>
ligand_docking-pose.sdf

> <i_m_Source_File_Index>
114

> <i_lp_mmshare_version>
53161

> <r_lp_tautomer_probability>
1

> <s_lp_Force_Field>
OPLS_2005

> <r_lp_Energy>
16.332376

> <b_lp_Chiralities_Consistent>
1

> <s_lp_Variant>
86889-1

> <s_i_glide_gridfile>
glide-grid_3f07

> <i_i_glide_lignum>
42

> <i_i_glide_rotatable_bonds>
11

> <r_i_docking_score>
-7.13332854298353

> <r_i_glide_ligand_efficiency>
-0.324242206499251

> <r_i_glide_ligand_efficiency_sa>
-0.908539414333276

> <r_i_glide_ligand_efficiency_ln>
-1.74364569038579

> <r_i_glide_gscore>
-7.13332854298353

> <r_i_glide_lipo>
-1.03748573370034

> <r_i_glide_hbond>
-0.233619343758183

> <r_i_glide_metal>
-2.3

> <r_i_glide_rewards>
-1.34069969935119

> <r_i_glide_evdw>
-30.3126182556152

> <r_i_glide_ecoul>
-16.0055961608887

> <r_i_glide_erotb>
1.80205018371269

> <r_i_glide_esite>
-0.10710361297244

> <r_i_glide_emodel>
-67.6189568670795

> <r_i_glide_energy>
-46.3182144165039

> <r_i_glide_einternal>
8.42998313903809

> <i_i_glide_confnum>
6

> <i_i_glide_posenum>
230

> <r_i_glide_eff_state_penalty>
0

> <i_f3d_flags>
0

> <s_user_duplicate_titles>
86889

> <s_m_subgroup_title>
dock_pv

> <s_m_subgroupid>
dock_pv1

> <b_m_subgroup_collapsed>
0

$$$$
273214
                    3D
 Schrodinger Suite 2021-1.
 47 47  0  0  1  0            999 V2000
  -28.6044   33.3750  -47.0714 C   0  0  0  0  0  0
  -27.5664   32.3717  -46.8273 N   0  0  0  0  0  0
  -27.3406   31.3639  -47.8620 C   0  0  0  0  0  0
  -26.9681   32.2463  -45.5445 C   0  0  0  0  0  0
  -26.1927   31.1242  -45.2106 C   0  0  0  0  0  0
  -25.6159   30.9977  -43.9499 C   0  0  0  0  0  0
  -25.8051   31.9941  -42.9875 C   0  0  0  0  0  0
  -26.5464   33.1310  -43.3175 C   0  0  0  0  0  0
  -27.1290   33.2487  -44.5761 C   0  0  0  0  0  0
  -25.1611   31.8995  -41.6250 C   0  0  0  0  0  0
  -24.4447   32.8344  -41.2646 O   0  0  0  0  0  0
  -25.3920   30.8009  -40.8505 N   0  0  0  0  0  0
  -24.7693   30.6886  -39.5249 C   0  0  0  0  0  0
  -26.4803   29.8344  -41.0807 C   0  0  0  0  0  0
  -27.8574   30.3045  -40.5576 C   0  0  0  0  0  0
  -28.2677   29.6660  -39.2158 C   0  0  0  0  0  0
  -28.7631   28.2157  -39.3706 C   0  0  0  0  0  0
  -29.0754   27.5168  -38.0247 C   0  0  0  0  0  0
  -30.0328   26.3135  -38.1170 C   0  0  0  0  0  0
  -30.6127   26.0690  -39.1809 O   0  0  0  0  0  0
  -30.2131   25.5899  -37.0004 N   0  0  0  0  0  0
  -31.0568   24.4692  -37.0664 O   0  0  0  0  0  0
  -28.1996   34.3827  -46.9718 H   0  0  0  0  0  0
  -29.0428   33.2847  -48.0661 H   0  0  0  0  0  0
  -29.4140   33.2693  -46.3480 H   0  0  0  0  0  0
  -27.8130   30.4236  -47.5803 H   0  0  0  0  0  0
  -27.7451   31.6698  -48.8278 H   0  0  0  0  0  0
  -26.2754   31.1713  -47.9939 H   0  0  0  0  0  0
  -26.0261   30.3297  -45.9200 H   0  0  0  0  0  0
  -25.0137   30.1269  -43.7318 H   0  0  0  0  0  0
  -26.6766   33.9287  -42.5991 H   0  0  0  0  0  0
  -27.6969   34.1411  -44.7867 H   0  0  0  0  0  0
  -23.8995   31.3382  -39.4073 H   0  0  0  0  0  0
  -25.4833   30.9547  -38.7453 H   0  0  0  0  0  0
  -24.4323   29.6691  -39.3426 H   0  0  0  0  0  0
  -26.2180   28.8691  -40.6473 H   0  0  0  0  0  0
  -26.5827   29.6328  -42.1435 H   0  0  0  0  0  0
  -28.6201   30.0813  -41.3054 H   0  0  0  0  0  0
  -27.8669   31.3914  -40.4558 H   0  0  0  0  0  0
  -29.0715   30.2619  -38.7812 H   0  0  0  0  0  0
  -27.4395   29.7116  -38.5068 H   0  0  0  0  0  0
  -28.0210   27.6237  -39.9090 H   0  0  0  0  0  0
  -29.6485   28.2476  -40.0048 H   0  0  0  0  0  0
  -29.5285   28.2306  -37.3348 H   0  0  0  0  0  0
  -28.1313   27.2092  -37.5810 H   0  0  0  0  0  0
  -29.7799   25.7178  -36.0949 H   0  0  0  0  0  0
  -30.4475   23.7282  -37.1802 H   0  0  0  0  0  0
  1  2  1  0  0  0
  1 23  1  0  0  0
  1 24  1  0  0  0
  1 25  1  0  0  0
  2  3  1  0  0  0
  2  4  1  0  0  0
  3 26  1  0  0  0
  3 27  1  0  0  0
  3 28  1  0  0  0
  4  9  1  0  0  0
  4  5  2  0  0  0
  5  6  1  0  0  0
  5 29  1  0  0  0
  6  7  2  0  0  0
  6 30  1  0  0  0
  7  8  1  0  0  0
  7 10  1  0  0  0
  8  9  2  0  0  0
  8 31  1  0  0  0
  9 32  1  0  0  0
 10 11  2  0  0  0
 10 12  1  0  0  0
 12 13  1  0  0  0
 12 14  1  0  0  0
 13 33  1  0  0  0
 13 34  1  0  0  0
 13 35  1  0  0  0
 14 15  1  0  0  0
 14 36  1  0  0  0
 14 37  1  0  0  0
 15 16  1  0  0  0
 15 38  1  0  0  0
 15 39  1  0  0  0
 16 17  1  0  0  0
 16 40  1  0  0  0
 16 41  1  0  0  0
 17 18  1  0  0  0
 17 42  1  0  0  0
 17 43  1  0  0  0
 18 19  1  0  0  0
 18 44  1  0  0  0
 18 45  1  0  0  0
 19 20  2  0  0  0
 19 21  1  0  0  0
 21 22  1  0  0  0
 21 46  1  0  0  0
 22 47  1  0  0  0
M  END
> <s_m_entry_id>
53623

> <s_m_entry_name>
ligand_docking-pose.116

> <s_m_Source_Path>
/home/csk/Desktop/cluster/DUD-E-result/hdac8

> <s_m_Source_File>
ligand_docking-pose.sdf

> <i_m_Source_File_Index>
116

> <i_lp_mmshare_version>
53161

> <r_lp_tautomer_probability>
1

> <s_lp_Force_Field>
OPLS_2005

> <r_lp_Energy>
33.019367

> <b_lp_Chiralities_Consistent>
1

> <s_lp_Variant>
273214-1

> <s_i_glide_gridfile>
glide-grid_3f07

> <i_i_glide_lignum>
353

> <i_i_glide_rotatable_bonds>
11

> <r_i_docking_score>
-7.09602158190883

> <r_i_glide_ligand_efficiency>
-0.32254643554131

> <r_i_glide_ligand_efficiency_sa>
-0.903787797418239

> <r_i_glide_ligand_efficiency_ln>
-1.73452650829466

> <r_i_glide_gscore>
-7.09602158190883

> <r_i_glide_lipo>
-1.33812186127767

> <r_i_glide_hbond>
-0.222106745957027

> <r_i_glide_metal>
-2.3

> <r_i_glide_rewards>
-1.43431357444049

> <r_i_glide_evdw>
-30.6324634552002

> <r_i_glide_ecoul>
-12.7803936004639

> <r_i_glide_erotb>
1.76081387710213

> <r_i_glide_esite>
-0.11361106450619

> <r_i_glide_emodel>
-61.7293402103388

> <r_i_glide_energy>
-43.4128570556641

> <r_i_glide_einternal>
8.21456336975098

> <i_i_glide_confnum>
4

> <i_i_glide_posenum>
172

> <r_i_glide_eff_state_penalty>
0

> <i_f3d_flags>
0

> <s_user_duplicate_titles>
273214

> <s_m_subgroup_title>
dock_pv

> <s_m_subgroupid>
dock_pv1

> <b_m_subgroup_collapsed>
0

$$$$
235550
                    3D
 Schrodinger Suite 2021-1.
 50 52  0  0  1  0            999 V2000
  -26.6485   33.9676  -47.3592 C   0  0  0  0  0  0
  -27.4134   32.9026  -47.8268 C   0  0  0  0  0  0
  -27.4131   31.6629  -47.1882 C   0  0  0  0  0  0
  -26.6187   31.5345  -46.0472 C   0  0  0  0  0  0
  -25.8175   32.6035  -45.5486 C   0  0  0  0  0  0
  -25.8453   33.8339  -46.2272 C   0  0  0  0  0  0
  -25.1213   32.1208  -44.3851 C   0  0  0  0  0  0
  -25.5378   30.8104  -44.2179 C   0  0  0  0  0  0
  -26.4246   30.4692  -45.2003 N   0  0  0  0  0  0
  -24.1598   32.9314  -43.5397 C   0  0  0  0  0  0
  -23.4007   32.1098  -42.4568 C   0  0  1  0  0  0
  -22.0358   31.5784  -42.9610 C   0  0  0  0  0  0
  -22.2130   30.6089  -43.9811 O   0  0  0  0  0  0
  -23.2074   32.9001  -41.2393 N   0  0  1  0  0  0
  -24.4206   33.2394  -40.4864 C   0  0  0  0  0  0
  -25.2475   32.0305  -40.0434 C   0  0  0  0  0  0
  -26.5891   31.8958  -40.4186 C   0  0  0  0  0  0
  -27.3356   30.7978  -39.9798 C   0  0  0  0  0  0
  -26.7427   29.8267  -39.1632 C   0  0  0  0  0  0
  -25.4106   29.9897  -38.7809 C   0  0  0  0  0  0
  -24.6642   31.0732  -39.2176 C   0  0  0  0  0  0
  -27.4599   28.6158  -38.7067 C   0  0  0  0  0  0
  -28.7687   28.5189  -38.3797 C   0  0  0  0  0  0
  -29.4130   27.2688  -38.0283 C   0  0  0  0  0  0
  -30.2126   27.1555  -37.0947 O   0  0  0  0  0  0
  -29.1858   26.3046  -38.9251 N   0  0  0  0  0  0
  -29.8551   25.0873  -38.7810 O   0  0  0  0  0  0
  -26.8459   29.5546  -45.2626 H   0  0  0  0  0  0
  -23.9795   31.2397  -42.1499 H   0  0  0  0  0  0
  -26.6778   34.9117  -47.8849 H   0  0  0  0  0  0
  -28.0252   33.0396  -48.7073 H   0  0  0  0  0  0
  -28.0103   30.8461  -47.5622 H   0  0  0  0  0  0
  -25.2529   34.6662  -45.8771 H   0  0  0  0  0  0
  -25.2690   30.0783  -43.4700 H   0  0  0  0  0  0
  -24.7269   33.7512  -43.1032 H   0  0  0  0  0  0
  -23.4321   33.4349  -44.1773 H   0  0  0  0  0  0
  -21.4137   32.3915  -43.3379 H   0  0  0  0  0  0
  -21.4822   31.0983  -42.1530 H   0  0  0  0  0  0
  -21.3703   30.4700  -44.4375 H   0  0  0  0  0  0
  -22.4919   32.5352  -40.6254 H   0  0  0  0  0  0
  -25.0342   33.9535  -41.0335 H   0  0  0  0  0  0
  -24.0897   33.7699  -39.5942 H   0  0  0  0  0  0
  -27.0477   32.6375  -41.0558 H   0  0  0  0  0  0
  -28.3640   30.6951  -40.2924 H   0  0  0  0  0  0
  -24.9280   29.2688  -38.1400 H   0  0  0  0  0  0
  -23.6364   31.1784  -38.9010 H   0  0  0  0  0  0
  -26.8545   27.7222  -38.6694 H   0  0  0  0  0  0
  -29.4128   29.3858  -38.3785 H   0  0  0  0  0  0
  -28.4497   26.2886  -39.6221 H   0  0  0  0  0  0
  -29.1938   24.5051  -38.3719 H   0  0  0  0  0  0
  1  6  1  0  0  0
  1  2  2  0  0  0
  1 30  1  0  0  0
  2  3  1  0  0  0
  2 31  1  0  0  0
  3  4  2  0  0  0
  3 32  1  0  0  0
  4  9  1  0  0  0
  4  5  1  0  0  0
  5  6  2  0  0  0
  5  7  1  0  0  0
  6 33  1  0  0  0
  7  8  2  0  0  0
  7 10  1  0  0  0
  8  9  1  0  0  0
  8 34  1  0  0  0
  9 28  1  0  0  0
 10 11  1  0  0  0
 10 35  1  0  0  0
 10 36  1  0  0  0
 11 29  1  0  0  0
 11 12  1  0  0  0
 11 14  1  0  0  0
 12 13  1  0  0  0
 12 37  1  0  0  0
 12 38  1  0  0  0
 13 39  1  0  0  0
 14 15  1  0  0  0
 14 40  1  0  0  0
 15 16  1  0  0  0
 15 41  1  0  0  0
 15 42  1  0  0  0
 16 21  1  0  0  0
 16 17  2  0  0  0
 17 18  1  0  0  0
 17 43  1  0  0  0
 18 19  2  0  0  0
 18 44  1  0  0  0
 19 20  1  0  0  0
 19 22  1  0  0  0
 20 21  2  0  0  0
 20 45  1  0  0  0
 21 46  1  0  0  0
 22 23  2  0  0  0
 22 47  1  0  0  0
 23 24  1  0  0  0
 23 48  1  0  0  0
 24 25  2  0  0  0
 24 26  1  0  0  0
 26 27  1  0  0  0
 26 49  1  0  0  0
 27 50  1  0  0  0
M  END
> <s_m_entry_id>
53624

> <s_m_entry_name>
ligand_docking-pose.117

> <s_m_Source_Path>
/home/csk/Desktop/cluster/DUD-E-result/hdac8

> <s_m_Source_File>
ligand_docking-pose.sdf

> <i_m_Source_File_Index>
117

> <i_lp_mmshare_version>
53161

> <r_lp_tautomer_probability>
1

> <s_lp_Force_Field>
OPLS_2005

> <r_lp_Energy>
31.106625

> <b_lp_Chiralities_Consistent>
1

> <s_lp_Variant>
235550-1

> <s_i_glide_gridfile>
glide-grid_3f07

> <i_i_glide_lignum>
27

> <i_i_glide_rotatable_bonds>
11

> <r_i_docking_score>
-7.08523398895744

> <r_i_glide_ligand_efficiency>
-0.26241607366509

> <r_i_glide_ligand_efficiency_sa>
-0.787248220130391

> <r_i_glide_ligand_efficiency_ln>
-1.64932566341785

> <r_i_glide_gscore>
-7.08523398895744

> <r_i_glide_lipo>
-1.37890372325419

> <r_i_glide_hbond>
-0.483389690534018

> <r_i_glide_metal>
-2.2417862877944

> <r_i_glide_rewards>
-1.04264929712345

> <r_i_glide_evdw>
-20.6933193206787

> <r_i_glide_ecoul>
-12.3749895095825

> <r_i_glide_erotb>
1.15240940221993

> <r_i_glide_esite>
-0.2

> <r_i_glide_emodel>
-45.1318203053546

> <r_i_glide_energy>
-33.0683088302612

> <r_i_glide_einternal>
8.86149501800537

> <i_i_glide_confnum>
23

> <i_i_glide_posenum>
1

> <r_i_glide_eff_state_penalty>
0

> <i_f3d_flags>
0

> <s_user_duplicate_titles>
235550

> <s_m_subgroup_title>
dock_pv

> <s_m_subgroupid>
dock_pv1

> <b_m_subgroup_collapsed>
0

$$$$
246103
                    3D
 Schrodinger Suite 2021-1.
 45 45  0  0  1  0            999 V2000
  -26.8322   34.0777  -43.8734 C   0  0  0  0  0  0
  -28.0367   34.7128  -43.5722 C   0  0  0  0  0  0
  -28.3380   35.0554  -42.2540 C   0  0  0  0  0  0
  -27.4245   34.7724  -41.2325 C   0  0  0  0  0  0
  -26.2095   34.1578  -41.5403 C   0  0  0  0  0  0
  -25.9088   33.7962  -42.8612 C   0  0  0  0  0  0
  -24.5830   33.1161  -43.2077 C   0  0  0  0  0  0
  -24.6390   31.5625  -43.2568 C   0  0  0  0  0  0
  -24.4163   30.7803  -44.2484 N   0  0  0  0  0  0
  -24.0650   31.4169  -45.4543 O   0  0  0  0  0  0
  -25.0130   30.8690  -42.0158 C   0  0  0  0  0  0
  -25.7639   29.8860  -42.0040 O   0  0  0  0  0  0
  -24.4732   31.4013  -40.8966 N   0  0  0  0  0  0
  -24.6117   30.9573  -39.5039 C   0  0  0  0  0  0
  -25.9834   30.4055  -39.0672 C   0  0  0  0  0  0
  -27.4633   31.2691  -39.6687 S   0  0  0  0  0  0
  -29.0132   30.1001  -39.0799 S   0  0  0  0  0  0
  -28.7383   28.5438  -39.9501 C   0  0  0  0  0  0
  -28.1678   27.3892  -39.1012 C   0  0  0  0  0  0
  -29.0130   26.9819  -37.9810 N   0  0  0  0  0  0
  -30.1657   26.2944  -38.0908 C   0  0  0  0  0  0
  -30.7033   26.0690  -39.1810 O   0  0  0  0  0  0
  -30.7697   25.8437  -36.8159 C   0  0  0  0  0  0
  -31.4130   24.7990  -36.7327 O   0  0  0  0  0  0
  -30.6130   26.7265  -35.7789 O   0  0  0  0  0  0
  -27.8130   35.2096  -39.4158 Br  0  0  0  0  0  0
  -29.5328   35.6690  -41.9817 O   0  0  0  0  0  0
  -26.6178   33.8088  -44.8980 H   0  0  0  0  0  0
  -28.7354   34.9260  -44.3681 H   0  0  0  0  0  0
  -25.5120   33.9559  -40.7385 H   0  0  0  0  0  0
  -24.2338   33.5423  -44.1469 H   0  0  0  0  0  0
  -23.8242   33.4379  -42.4927 H   0  0  0  0  0  0
  -24.0741   32.3474  -45.2256 H   0  0  0  0  0  0
  -23.8688   32.2010  -41.0113 H   0  0  0  0  0  0
  -23.8346   30.2209  -39.2900 H   0  0  0  0  0  0
  -24.3759   31.8205  -38.8804 H   0  0  0  0  0  0
  -26.0424   29.3842  -39.4346 H   0  0  0  0  0  0
  -26.0330   30.3445  -37.9812 H   0  0  0  0  0  0
  -29.6959   28.2649  -40.3810 H   0  0  0  0  0  0
  -28.0639   28.7463  -40.7810 H   0  0  0  0  0  0
  -27.9267   26.5223  -39.7170 H   0  0  0  0  0  0
  -27.2140   27.6906  -38.6709 H   0  0  0  0  0  0
  -28.6130   27.1485  -37.0613 H   0  0  0  0  0  0
  -30.0816   27.5002  -35.9817 H   0  0  0  0  0  0
  -29.9871   35.9466  -42.7810 H   0  0  0  0  0  0
  1  6  1  0  0  0
  1  2  2  0  0  0
  1 28  1  0  0  0
  2  3  1  0  0  0
  2 29  1  0  0  0
  3  4  2  0  0  0
  3 27  1  0  0  0
  4  5  1  0  0  0
  4 26  1  0  0  0
  5  6  2  0  0  0
  5 30  1  0  0  0
  6  7  1  0  0  0
  7  8  1  0  0  0
  7 31  1  0  0  0
  7 32  1  0  0  0
  8  9  2  0  0  0
  8 11  1  0  0  0
  9 10  1  0  0  0
 10 33  1  0  0  0
 11 12  2  0  0  0
 11 13  1  0  0  0
 13 14  1  0  0  0
 13 34  1  0  0  0
 14 15  1  0  0  0
 14 35  1  0  0  0
 14 36  1  0  0  0
 15 16  1  0  0  0
 15 37  1  0  0  0
 15 38  1  0  0  0
 16 17  1  0  0  0
 17 18  1  0  0  0
 18 19  1  0  0  0
 18 39  1  0  0  0
 18 40  1  0  0  0
 19 20  1  0  0  0
 19 41  1  0  0  0
 19 42  1  0  0  0
 20 21  1  0  0  0
 20 43  1  0  0  0
 21 22  2  0  0  0
 21 23  1  0  0  0
 23 24  2  0  0  0
 23 25  1  0  0  0
 25 44  1  0  0  0
 27 45  1  0  0  0
M  END
> <s_m_entry_id>
53625

> <s_m_entry_name>
ligand_docking-pose.118

> <s_m_Source_Path>
/home/csk/Desktop/cluster/DUD-E-result/hdac8

> <s_m_Source_File>
ligand_docking-pose.sdf

> <i_m_Source_File_Index>
118

> <i_lp_mmshare_version>
53161

> <r_lp_tautomer_probability>
0.999999999997365

> <s_lp_Force_Field>
OPLS_2005

> <r_lp_Energy>
3.464517

> <b_lp_Chiralities_Consistent>
1

> <s_lp_Variant>
246103-1

> <s_i_glide_gridfile>
glide-grid_3f07

> <i_i_glide_lignum>
153

> <i_i_glide_rotatable_bonds>
16

> <r_i_docking_score>
-7.06346162137593

> <r_i_glide_ligand_efficiency>
-0.26160968968059

> <r_i_glide_ligand_efficiency_sa>
-0.784829068179547

> <r_i_glide_ligand_efficiency_ln>
-1.64425741519041

> <r_i_glide_gscore>
-7.06346162137593

> <r_i_glide_lipo>
-0.339035879745327

> <r_i_glide_hbond>
-0.525208644313692

> <r_i_glide_metal>
-2.3

> <r_i_glide_rewards>
-0.232228676338497

> <r_i_glide_evdw>
-36.9547653198242

> <r_i_glide_ecoul>
-18.9362926483154

> <r_i_glide_erotb>
1.23037232461481

> <r_i_glide_esite>
-0.209178582354703

> <r_i_glide_emodel>
-82.0974553743813

> <r_i_glide_energy>
-55.8910579681396

> <r_i_glide_einternal>
7.55973196029663

> <i_i_glide_confnum>
398

> <i_i_glide_posenum>
237

> <r_i_glide_eff_state_penalty>
0

> <i_f3d_flags>
0

> <s_user_duplicate_titles>
246103

> <s_m_subgroup_title>
dock_pv

> <s_m_subgroupid>
dock_pv1

> <b_m_subgroup_collapsed>
0

$$$$
321938
                    3D
 Schrodinger Suite 2021-1.
 42 43  0  0  1  0            999 V2000
  -26.0053   30.2339  -38.3358 C   0  0  0  0  0  0
  -26.0511   30.2364  -39.7842 N   0  0  0  0  0  0
  -25.1502   30.9132  -40.5704 C   0  0  0  0  0  0
  -25.4670   30.7857  -41.9098 C   0  0  0  0  0  0
  -26.6686   30.0692  -41.9035 C   0  0  0  0  0  0
  -27.0049   29.6684  -40.6130 C   0  0  0  0  0  0
  -28.1158   28.8256  -40.1640 C   0  0  0  0  0  0
  -28.1859   28.0122  -39.0862 C   0  0  0  0  0  0
  -29.3403   27.1932  -38.7810 C   0  0  0  0  0  0
  -30.2130   26.8690  -39.5814 O   0  0  0  0  0  0
  -29.4130   26.8331  -37.5102 N   0  0  0  0  0  0
  -30.5060   26.0691  -37.0598 O   0  0  0  0  0  0
  -24.7169   31.3013  -43.0372 C   0  0  0  0  0  0
  -24.9200   31.0158  -44.3411 C   0  0  0  0  0  0
  -24.0855   31.5690  -45.4155 C   0  0  0  0  0  0
  -23.0067   32.0984  -45.1394 O   0  0  0  0  0  0
  -24.5284   31.3776  -46.8417 C   0  0  0  0  0  0
  -25.9038   31.3794  -47.1364 C   0  0  0  0  0  0
  -26.3577   31.2677  -48.4474 C   0  0  0  0  0  0
  -25.4473   31.1651  -49.4913 C   0  0  0  0  0  0
  -24.0817   31.1686  -49.2226 C   0  0  0  0  0  0
  -23.5994   31.2788  -47.9047 C   0  0  0  0  0  0
  -22.2455   31.2689  -47.6111 O   0  0  0  0  0  0
  -21.2830   31.2011  -48.6582 C   0  0  0  0  0  0
  -25.4258   31.0883  -37.9809 H   0  0  0  0  0  0
  -27.0128   30.3003  -37.9301 H   0  0  0  0  0  0
  -25.5214   29.3189  -37.9925 H   0  0  0  0  0  0
  -24.3231   31.4298  -40.1033 H   0  0  0  0  0  0
  -27.2256   29.8138  -42.7906 H   0  0  0  0  0  0
  -28.9589   28.8692  -40.8369 H   0  0  0  0  0  0
  -27.3608   27.9365  -38.3931 H   0  0  0  0  0  0
  -28.7640   27.1051  -36.7821 H   0  0  0  0  0  0
  -30.9971   26.6799  -36.5018 H   0  0  0  0  0  0
  -23.9112   31.9633  -42.7457 H   0  0  0  0  0  0
  -25.7187   30.3516  -44.6336 H   0  0  0  0  0  0
  -26.6454   31.4872  -46.3573 H   0  0  0  0  0  0
  -27.4178   31.2731  -48.6549 H   0  0  0  0  0  0
  -25.7997   31.0923  -50.5099 H   0  0  0  0  0  0
  -23.4060   31.0896  -50.0596 H   0  0  0  0  0  0
  -20.2832   31.2692  -48.2300 H   0  0  0  0  0  0
  -21.3454   30.2555  -49.1989 H   0  0  0  0  0  0
  -21.3927   32.0281  -49.3606 H   0  0  0  0  0  0
  1  2  1  0  0  0
  1 25  1  0  0  0
  1 26  1  0  0  0
  1 27  1  0  0  0
  2  6  1  0  0  0
  2  3  1  0  0  0
  3  4  2  0  0  0
  3 28  1  0  0  0
  4  5  1  0  0  0
  4 13  1  0  0  0
  5  6  2  0  0  0
  5 29  1  0  0  0
  6  7  1  0  0  0
  7  8  2  0  0  0
  7 30  1  0  0  0
  8  9  1  0  0  0
  8 31  1  0  0  0
  9 10  2  0  0  0
  9 11  1  0  0  0
 11 12  1  0  0  0
 11 32  1  0  0  0
 12 33  1  0  0  0
 13 14  2  0  0  0
 13 34  1  0  0  0
 14 15  1  0  0  0
 14 35  1  0  0  0
 15 16  2  0  0  0
 15 17  1  0  0  0
 17 22  1  0  0  0
 17 18  2  0  0  0
 18 19  1  0  0  0
 18 36  1  0  0  0
 19 20  2  0  0  0
 19 37  1  0  0  0
 20 21  1  0  0  0
 20 38  1  0  0  0
 21 22  2  0  0  0
 21 39  1  0  0  0
 22 23  1  0  0  0
 23 24  1  0  0  0
 24 40  1  0  0  0
 24 41  1  0  0  0
 24 42  1  0  0  0
M  END
> <s_m_entry_id>
53628

> <s_m_entry_name>
ligand_docking-pose.121

> <s_m_Source_Path>
/home/csk/Desktop/cluster/DUD-E-result/hdac8

> <s_m_Source_File>
ligand_docking-pose.sdf

> <i_m_Source_File_Index>
121

> <i_lp_mmshare_version>
53161

> <r_lp_tautomer_probability>
1

> <s_lp_Force_Field>
OPLS_2005

> <r_lp_Energy>
26.019093

> <b_lp_Chiralities_Consistent>
1

> <s_lp_Variant>
321938-1

> <s_i_glide_gridfile>
glide-grid_3f07

> <i_i_glide_lignum>
341

> <i_i_glide_rotatable_bonds>
8

> <r_i_docking_score>
-6.91035432379749

> <r_i_glide_ligand_efficiency>
-0.287931430158229

> <r_i_glide_ligand_efficiency_sa>
-0.830537961967575

> <r_i_glide_ligand_efficiency_ln>
-1.65396488518244

> <r_i_glide_gscore>
-6.91035432379749

> <r_i_glide_lipo>
-1.07182471888259

> <r_i_glide_hbond>
-0.608

> <r_i_glide_metal>
-1.64234919226673

> <r_i_glide_rewards>
-1.18400099974945

> <r_i_glide_evdw>
-26.8236045837402

> <r_i_glide_ecoul>
-12.796760559082

> <r_i_glide_erotb>
1.05651490015059

> <r_i_glide_esite>
-0.2

> <r_i_glide_emodel>
-56.0719599326204

> <r_i_glide_energy>
-39.6203651428223

> <r_i_glide_einternal>
5.51000928878784

> <i_i_glide_confnum>
2

> <i_i_glide_posenum>
213

> <r_i_glide_eff_state_penalty>
0

> <i_f3d_flags>
0

> <s_user_duplicate_titles>
321938

> <s_m_subgroup_title>
dock_pv

> <s_m_subgroupid>
dock_pv1

> <b_m_subgroup_collapsed>
0

$$$$
36679
                    3D
 Schrodinger Suite 2021-1.
 40 42  0  0  1  0            999 V2000
  -21.9323   32.7634  -44.6905 C   0  0  0  0  0  0
  -22.4420   33.6830  -43.7838 C   0  0  0  0  0  0
  -23.6412   33.4348  -43.1226 C   0  0  0  0  0  0
  -24.3746   32.2308  -43.3525 C   0  0  0  0  0  0
  -23.8308   31.2891  -44.2869 C   0  0  0  0  0  0
  -22.6131   31.5793  -44.9484 C   0  0  0  0  0  0
  -24.5181   30.0809  -44.5425 C   0  0  0  0  0  0
  -25.7054   29.7959  -43.8874 C   0  0  0  0  0  0
  -26.2425   30.6972  -42.9786 C   0  0  0  0  0  0
  -25.6166   31.9164  -42.6983 C   0  0  0  0  0  0
  -26.2744   32.8905  -41.7461 C   0  0  0  0  0  0
  -26.7249   33.9516  -42.1689 O   0  0  0  0  0  0
  -26.3321   32.6057  -40.4328 N   0  0  0  0  0  0
  -25.8786   31.4013  -39.7342 C   0  0  0  0  0  0
  -26.9177   30.2946  -39.5470 C   0  0  0  0  0  0
  -28.1909   30.3433  -40.1163 C   0  0  0  0  0  0
  -29.0524   29.2614  -39.9810 C   0  0  0  0  0  0
  -28.6892   28.1207  -39.2468 C   0  0  0  0  0  0
  -27.4342   28.1108  -38.6299 C   0  0  0  0  0  0
  -26.5653   29.1887  -38.7810 C   0  0  0  0  0  0
  -29.6343   26.9312  -39.1810 C   0  0  0  0  0  0
  -30.6130   26.8690  -39.9461 O   0  0  0  0  0  0
  -29.4130   25.9959  -38.2575 N   0  0  0  0  0  0
  -30.2507   24.8690  -38.2507 O   0  0  0  0  0  0
  -21.0002   32.9677  -45.1971 H   0  0  0  0  0  0
  -21.9030   34.5990  -43.5904 H   0  0  0  0  0  0
  -24.0107   34.1708  -42.4236 H   0  0  0  0  0  0
  -22.2130   30.8695  -45.6574 H   0  0  0  0  0  0
  -24.1196   29.3758  -45.2560 H   0  0  0  0  0  0
  -26.2131   28.8686  -44.1013 H   0  0  0  0  0  0
  -27.1859   30.4492  -42.5197 H   0  0  0  0  0  0
  -26.6524   33.3517  -39.8326 H   0  0  0  0  0  0
  -25.5343   31.7096  -38.7455 H   0  0  0  0  0  0
  -25.0082   30.9708  -40.2344 H   0  0  0  0  0  0
  -28.5069   31.1938  -40.7011 H   0  0  0  0  0  0
  -30.0123   29.3189  -40.4740 H   0  0  0  0  0  0
  -27.1044   27.2690  -38.0409 H   0  0  0  0  0  0
  -25.5869   29.1455  -38.3250 H   0  0  0  0  0  0
  -28.6815   25.9634  -37.5611 H   0  0  0  0  0  0
  -29.6405   24.1132  -38.2781 H   0  0  0  0  0  0
  1  6  1  0  0  0
  1  2  2  0  0  0
  1 25  1  0  0  0
  2  3  1  0  0  0
  2 26  1  0  0  0
  3  4  2  0  0  0
  3 27  1  0  0  0
  4 10  1  0  0  0
  4  5  1  0  0  0
  5  6  2  0  0  0
  5  7  1  0  0  0
  6 28  1  0  0  0
  7  8  2  0  0  0
  7 29  1  0  0  0
  8  9  1  0  0  0
  8 30  1  0  0  0
  9 10  2  0  0  0
  9 31  1  0  0  0
 10 11  1  0  0  0
 11 12  2  0  0  0
 11 13  1  0  0  0
 13 14  1  0  0  0
 13 32  1  0  0  0
 14 15  1  0  0  0
 14 33  1  0  0  0
 14 34  1  0  0  0
 15 20  1  0  0  0
 15 16  2  0  0  0
 16 17  1  0  0  0
 16 35  1  0  0  0
 17 18  2  0  0  0
 17 36  1  0  0  0
 18 19  1  0  0  0
 18 21  1  0  0  0
 19 20  2  0  0  0
 19 37  1  0  0  0
 20 38  1  0  0  0
 21 22  2  0  0  0
 21 23  1  0  0  0
 23 24  1  0  0  0
 23 39  1  0  0  0
 24 40  1  0  0  0
M  END
> <s_m_entry_id>
53630

> <s_m_entry_name>
ligand_docking-pose.123

> <s_m_Source_Path>
/home/csk/Desktop/cluster/DUD-E-result/hdac8

> <s_m_Source_File>
ligand_docking-pose.sdf

> <i_m_Source_File_Index>
123

> <i_lp_mmshare_version>
53161

> <r_lp_tautomer_probability>
1

> <s_lp_Force_Field>
OPLS_2005

> <r_lp_Energy>
30.579125

> <b_lp_Chiralities_Consistent>
1

> <s_lp_Variant>
36679-1

> <s_i_glide_gridfile>
glide-grid_3f07

> <i_i_glide_lignum>
15

> <i_i_glide_rotatable_bonds>
7

> <r_i_docking_score>
-6.86912762350659

> <r_i_glide_ligand_efficiency>
-0.286213650979441

> <r_i_glide_ligand_efficiency_sa>
-0.825583029407845

> <r_i_glide_ligand_efficiency_ln>
-1.64409744403282

> <r_i_glide_gscore>
-6.86912762350659

> <r_i_glide_lipo>
-1.48124776125844

> <r_i_glide_hbond>
-0.307351424457545

> <r_i_glide_metal>
-2.3

> <r_i_glide_rewards>
-0.0729759585644574

> <r_i_glide_evdw>
-17.5650653839111

> <r_i_glide_ecoul>
-16.4050807952881

> <r_i_glide_erotb>
0.909744760555152

> <r_i_glide_esite>
-0.278281851292537

> <r_i_glide_emodel>
-46.8680898124495

> <r_i_glide_energy>
-33.9701461791992

> <r_i_glide_einternal>
6.67690896987915

> <i_i_glide_confnum>
3

> <i_i_glide_posenum>
232

> <r_i_glide_eff_state_penalty>
0

> <i_f3d_flags>
0

> <s_user_duplicate_titles>
36679

> <s_m_subgroup_title>
dock_pv

> <s_m_subgroupid>
dock_pv1

> <b_m_subgroup_collapsed>
0

$$$$
161966
                    3D
 Schrodinger Suite 2021-1.
 73 74  0  0  1  0            999 V2000
  -22.5527   34.7889  -40.5056 C   0  0  0  0  0  0
  -23.6904   35.7892  -40.2234 C   0  0  0  0  0  0
  -24.1277   36.6445  -41.4399 C   0  0  0  0  0  0
  -25.1421   36.0386  -42.4572 C   0  0  2  0  0  0
  -26.5664   35.8843  -41.9552 C   0  0  2  0  0  0
  -26.8222   34.3828  -42.0528 C   0  0  0  0  0  0
  -27.8100   33.8151  -41.5798 O   0  0  0  0  0  0
  -25.7601   33.7916  -42.6700 N   0  0  0  0  0  0
  -24.7372   34.6529  -42.9309 C   0  0  0  0  0  0
  -23.6613   34.4175  -43.4788 O   0  0  0  0  0  0
  -25.7383   32.3147  -42.9174 C   0  0  1  0  0  0
  -25.0292   31.8671  -44.2382 C   0  0  0  0  0  0
  -25.7062   32.2761  -45.5307 C   0  0  0  0  0  0
  -25.3547   33.4696  -46.1957 C   0  0  0  0  0  0
  -26.0240   33.8440  -47.3532 C   0  0  0  0  0  0
  -27.0489   33.0523  -47.8533 C   0  0  0  0  0  0
  -27.4197   31.8899  -47.1904 C   0  0  0  0  0  0
  -26.7785   31.5089  -46.0232 C   0  0  0  0  0  0
  -25.3330   31.4470  -41.6948 C   0  0  0  0  0  0
  -24.6118   30.4691  -41.8588 O   0  0  0  0  0  0
  -25.8252   31.7778  -40.4902 N   0  0  0  0  0  0
  -25.6420   30.9845  -39.2726 C   0  0  0  0  0  0
  -26.8998   30.1702  -38.9034 C   0  0  0  0  0  0
  -27.4434   29.2058  -39.9751 C   0  0  0  0  0  0
  -28.7354   28.4962  -39.5164 C   0  0  0  0  0  0
  -28.4799   27.1567  -38.7962 C   0  0  0  0  0  0
  -29.7732   26.4689  -38.3373 C   0  0  0  0  0  0
  -30.5842   26.0690  -39.1807 O   0  0  0  0  0  0
  -29.9560   26.3680  -37.0127 N   0  0  0  0  0  0
  -31.1319   25.7707  -36.5422 O   0  0  0  0  0  0
  -27.5834   36.7170  -42.8008 C   0  0  0  0  0  0
  -29.0556   36.8573  -42.3145 C   0  0  0  0  0  0
  -29.1980   36.9885  -40.7876 C   0  0  0  0  0  0
  -30.0187   35.8092  -42.9074 C   0  0  0  0  0  0
  -25.1322   36.6702  -43.3487 H   0  0  0  0  0  0
  -26.6094   36.1665  -40.9026 H   0  0  0  0  0  0
  -26.7762   32.0183  -43.0763 H   0  0  0  0  0  0
  -22.0865   34.4539  -39.5814 H   0  0  0  0  0  0
  -22.9083   33.8915  -41.0103 H   0  0  0  0  0  0
  -21.7667   35.2343  -41.1151 H   0  0  0  0  0  0
  -23.3398   36.4672  -39.4439 H   0  0  0  0  0  0
  -24.5448   35.2686  -39.7911 H   0  0  0  0  0  0
  -23.2339   36.9664  -41.9771 H   0  0  0  0  0  0
  -24.5624   37.5713  -41.0602 H   0  0  0  0  0  0
  -24.9752   30.7780  -44.2701 H   0  0  0  0  0  0
  -23.9861   32.1763  -44.2661 H   0  0  0  0  0  0
  -24.5507   34.0872  -45.8279 H   0  0  0  0  0  0
  -25.7424   34.7505  -47.8696 H   0  0  0  0  0  0
  -27.5625   33.3427  -48.7584 H   0  0  0  0  0  0
  -28.2133   31.2761  -47.5830 H   0  0  0  0  0  0
  -27.0891   30.6098  -45.5101 H   0  0  0  0  0  0
  -26.3865   32.6144  -40.4063 H   0  0  0  0  0  0
  -24.7930   30.3033  -39.3766 H   0  0  0  0  0  0
  -25.3862   31.6651  -38.4584 H   0  0  0  0  0  0
  -26.7064   29.6204  -37.9813 H   0  0  0  0  0  0
  -27.7014   30.8692  -38.6854 H   0  0  0  0  0  0
  -27.6670   29.7738  -40.8795 H   0  0  0  0  0  0
  -26.6780   28.4815  -40.2616 H   0  0  0  0  0  0
  -29.3067   29.1654  -38.8698 H   0  0  0  0  0  0
  -29.3734   28.3352  -40.3808 H   0  0  0  0  0  0
  -27.9548   26.4716  -39.4621 H   0  0  0  0  0  0
  -27.8137   27.3129  -37.9484 H   0  0  0  0  0  0
  -29.3520   26.7232  -36.2772 H   0  0  0  0  0  0
  -31.6284   26.5057  -36.1704 H   0  0  0  0  0  0
  -27.1848   37.7322  -42.8550 H   0  0  0  0  0  0
  -27.5733   36.3744  -43.8387 H   0  0  0  0  0  0
  -29.4031   37.8113  -42.7169 H   0  0  0  0  0  0
  -28.9598   36.0564  -40.2756 H   0  0  0  0  0  0
  -28.5361   37.7612  -40.3950 H   0  0  0  0  0  0
  -30.2131   37.2724  -40.5116 H   0  0  0  0  0  0
  -29.8463   34.8093  -42.5208 H   0  0  0  0  0  0
  -31.0540   36.0651  -42.6798 H   0  0  0  0  0  0
  -29.9327   35.7578  -43.9937 H   0  0  0  0  0  0
  1  2  1  0  0  0
  1 38  1  0  0  0
  1 39  1  0  0  0
  1 40  1  0  0  0
  2  3  1  0  0  0
  2 41  1  0  0  0
  2 42  1  0  0  0
  3  4  1  0  0  0
  3 43  1  0  0  0
  3 44  1  0  0  0
  4 35  1  0  0  0
  4  9  1  0  0  0
  4  5  1  0  0  0
  5 36  1  0  0  0
  5  6  1  0  0  0
  5 31  1  0  0  0
  6  7  2  0  0  0
  6  8  1  0  0  0
  8  9  1  0  0  0
  8 11  1  0  0  0
  9 10  2  0  0  0
 11 37  1  0  0  0
 11 12  1  0  0  0
 11 19  1  0  0  0
 12 13  1  0  0  0
 12 45  1  0  0  0
 12 46  1  0  0  0
 13 18  1  0  0  0
 13 14  2  0  0  0
 14 15  1  0  0  0
 14 47  1  0  0  0
 15 16  2  0  0  0
 15 48  1  0  0  0
 16 17  1  0  0  0
 16 49  1  0  0  0
 17 18  2  0  0  0
 17 50  1  0  0  0
 18 51  1  0  0  0
 19 20  2  0  0  0
 19 21  1  0  0  0
 21 22  1  0  0  0
 21 52  1  0  0  0
 22 23  1  0  0  0
 22 53  1  0  0  0
 22 54  1  0  0  0
 23 24  1  0  0  0
 23 55  1  0  0  0
 23 56  1  0  0  0
 24 25  1  0  0  0
 24 57  1  0  0  0
 24 58  1  0  0  0
 25 26  1  0  0  0
 25 59  1  0  0  0
 25 60  1  0  0  0
 26 27  1  0  0  0
 26 61  1  0  0  0
 26 62  1  0  0  0
 27 28  2  0  0  0
 27 29  1  0  0  0
 29 30  1  0  0  0
 29 63  1  0  0  0
 30 64  1  0  0  0
 31 32  1  0  0  0
 31 65  1  0  0  0
 31 66  1  0  0  0
 32 33  1  0  0  0
 32 34  1  0  0  0
 32 67  1  0  0  0
 33 68  1  0  0  0
 33 69  1  0  0  0
 33 70  1  0  0  0
 34 71  1  0  0  0
 34 72  1  0  0  0
 34 73  1  0  0  0
M  END
> <s_m_entry_id>
53631

> <s_m_entry_name>
ligand_docking-pose.124

> <s_m_Source_Path>
/home/csk/Desktop/cluster/DUD-E-result/hdac8

> <s_m_Source_File>
ligand_docking-pose.sdf

> <i_m_Source_File_Index>
124

> <i_lp_mmshare_version>
53161

> <r_lp_tautomer_probability>
1

> <s_lp_Force_Field>
OPLS_2005

> <r_lp_Energy>
30.51723

> <b_lp_Chiralities_Consistent>
1

> <s_lp_Variant>
161966-1

> <s_i_glide_gridfile>
glide-grid_3f07

> <i_i_glide_lignum>
302

> <i_i_glide_rotatable_bonds>
17

> <r_i_docking_score>
-6.85278904218611

> <r_i_glide_ligand_efficiency>
-0.201552618887827

> <r_i_glide_ligand_efficiency_sa>
-0.652952241959872

> <r_i_glide_ligand_efficiency_ln>
-1.51397331364082

> <r_i_glide_gscore>
-6.85278904218611

> <r_i_glide_lipo>
-0.916443921492833

> <r_i_glide_hbond>
-0.526736402183933

> <r_i_glide_metal>
-2.3

> <r_i_glide_rewards>
-0.254822857884183

> <r_i_glide_evdw>
-31.5458641052246

> <r_i_glide_ecoul>
-15.6752023696899

> <r_i_glide_erotb>
1.26259765954564

> <r_i_glide_esite>
-0.188809959456082

> <r_i_glide_emodel>
-61.5582569049195

> <r_i_glide_energy>
-47.2210664749146

> <r_i_glide_einternal>
19.5269184112549

> <i_i_glide_confnum>
32

> <i_i_glide_posenum>
289

> <r_i_glide_eff_state_penalty>
0

> <i_f3d_flags>
0

> <s_user_duplicate_titles>
161966

> <s_m_subgroup_title>
dock_pv

> <s_m_subgroupid>
dock_pv1

> <b_m_subgroup_collapsed>
0

$$$$
86328
                    3D
 Schrodinger Suite 2021-1.
 46 47  0  0  1  0            999 V2000
  -23.5289   31.2578  -50.1940 C   0  0  0  0  0  0
  -24.8275   31.2278  -49.6109 O   0  0  0  0  0  0
  -24.9501   31.2690  -48.2362 C   0  0  0  0  0  0
  -26.2560   31.2691  -47.7343 C   0  0  0  0  0  0
  -26.5286   31.2713  -46.3647 C   0  0  0  0  0  0
  -25.4265   31.2836  -45.5048 C   0  0  0  0  0  0
  -24.0933   31.2947  -45.9710 C   0  0  0  0  0  0
  -23.8542   31.2841  -47.3523 C   0  0  0  0  0  0
  -23.2905   31.3196  -44.7924 C   0  0  0  0  0  0
  -24.1682   31.3377  -43.7105 C   0  0  0  0  0  0
  -25.4703   31.2956  -44.1388 O   0  0  0  0  0  0
  -23.8824   31.4255  -42.2978 C   0  0  0  0  0  0
  -22.7445   31.6690  -41.8947 O   0  0  0  0  0  0
  -24.9345   31.2072  -41.4900 N   0  0  0  0  0  0
  -24.8795   31.2281  -40.0284 C   0  0  0  0  0  0
  -26.2129   31.6692  -39.3975 C   0  0  0  0  0  0
  -27.4349   30.7738  -39.6982 C   0  0  0  0  0  0
  -27.3154   29.3587  -39.1059 C   0  0  0  0  0  0
  -28.6358   28.5700  -39.1380 C   0  0  0  0  0  0
  -28.4788   27.1729  -38.5080 C   0  0  0  0  0  0
  -29.8130   26.4690  -38.2308 C   0  0  0  0  0  0
  -30.4925   26.0690  -39.1810 O   0  0  0  0  0  0
  -30.1851   26.3355  -36.9472 N   0  0  0  0  0  0
  -31.4129   25.7186  -36.6717 O   0  0  0  0  0  0
  -23.6223   31.2404  -51.2792 H   0  0  0  0  0  0
  -22.9898   32.1677  -49.9255 H   0  0  0  0  0  0
  -22.9368   30.3897  -49.8998 H   0  0  0  0  0  0
  -27.0811   31.2579  -48.4328 H   0  0  0  0  0  0
  -27.5403   31.2692  -45.9868 H   0  0  0  0  0  0
  -22.8367   31.2859  -47.7096 H   0  0  0  0  0  0
  -22.2118   31.3450  -44.7229 H   0  0  0  0  0  0
  -25.8227   30.9892  -41.9153 H   0  0  0  0  0  0
  -24.0797   31.8769  -39.6600 H   0  0  0  0  0  0
  -24.6288   30.2168  -39.7041 H   0  0  0  0  0  0
  -26.4249   32.6932  -39.7092 H   0  0  0  0  0  0
  -26.0759   31.7260  -38.3165 H   0  0  0  0  0  0
  -27.6061   30.7135  -40.7739 H   0  0  0  0  0  0
  -28.3218   31.2574  -39.2869 H   0  0  0  0  0  0
  -26.9747   29.4325  -38.0712 H   0  0  0  0  0  0
  -26.5452   28.8011  -39.6407 H   0  0  0  0  0  0
  -28.9847   28.4748  -40.1671 H   0  0  0  0  0  0
  -29.3920   29.1435  -38.5974 H   0  0  0  0  0  0
  -27.9161   27.2690  -37.5810 H   0  0  0  0  0  0
  -27.8785   26.5371  -39.1608 H   0  0  0  0  0  0
  -29.6940   26.6621  -36.1222 H   0  0  0  0  0  0
  -31.9642   26.4404  -36.3566 H   0  0  0  0  0  0
  1  2  1  0  0  0
  1 25  1  0  0  0
  1 26  1  0  0  0
  1 27  1  0  0  0
  2  3  1  0  0  0
  3  8  1  0  0  0
  3  4  2  0  0  0
  4  5  1  0  0  0
  4 28  1  0  0  0
  5  6  2  0  0  0
  5 29  1  0  0  0
  6 11  1  0  0  0
  6  7  1  0  0  0
  7  8  2  0  0  0
  7  9  1  0  0  0
  8 30  1  0  0  0
  9 10  2  0  0  0
  9 31  1  0  0  0
 10 11  1  0  0  0
 10 12  1  0  0  0
 12 13  2  0  0  0
 12 14  1  0  0  0
 14 15  1  0  0  0
 14 32  1  0  0  0
 15 16  1  0  0  0
 15 33  1  0  0  0
 15 34  1  0  0  0
 16 17  1  0  0  0
 16 35  1  0  0  0
 16 36  1  0  0  0
 17 18  1  0  0  0
 17 37  1  0  0  0
 17 38  1  0  0  0
 18 19  1  0  0  0
 18 39  1  0  0  0
 18 40  1  0  0  0
 19 20  1  0  0  0
 19 41  1  0  0  0
 19 42  1  0  0  0
 20 21  1  0  0  0
 20 43  1  0  0  0
 20 44  1  0  0  0
 21 22  2  0  0  0
 21 23  1  0  0  0
 23 24  1  0  0  0
 23 45  1  0  0  0
 24 46  1  0  0  0
M  END
> <s_m_entry_id>
53632

> <s_m_entry_name>
ligand_docking-pose.125

> <s_m_Source_Path>
/home/csk/Desktop/cluster/DUD-E-result/hdac8

> <s_m_Source_File>
ligand_docking-pose.sdf

> <i_m_Source_File_Index>
125

> <i_lp_mmshare_version>
53161

> <r_lp_tautomer_probability>
1

> <s_lp_Force_Field>
OPLS_2005

> <r_lp_Energy>
18.940222

> <b_lp_Chiralities_Consistent>
1

> <s_lp_Variant>
86328-1

> <s_i_glide_gridfile>
glide-grid_3f07

> <i_i_glide_lignum>
365

> <i_i_glide_rotatable_bonds>
12

> <r_i_docking_score>
-6.84553437569918

> <r_i_glide_ligand_efficiency>
-0.285230598987466

> <r_i_glide_ligand_efficiency_sa>
-0.822747416784816

> <r_i_glide_ligand_efficiency_ln>
-1.63845049720891

> <r_i_glide_gscore>
-6.84553437569918

> <r_i_glide_lipo>
-0.892446450612171

> <r_i_glide_hbond>
-0.39596260093682

> <r_i_glide_metal>
-2.3

> <r_i_glide_rewards>
-1.2525768828357

> <r_i_glide_evdw>
-30.9878616333008

> <r_i_glide_ecoul>
-13.5296802520752

> <r_i_glide_erotb>
1.68688663877183

> <r_i_glide_esite>
-0.11258996061

> <r_i_glide_emodel>
-63.7813172958235

> <r_i_glide_energy>
-44.517541885376

> <r_i_glide_einternal>
8.43609046936035

> <i_i_glide_confnum>
47

> <i_i_glide_posenum>
287

> <r_i_glide_eff_state_penalty>
0

> <i_f3d_flags>
0

> <s_user_duplicate_titles>
86328

> <s_m_subgroup_title>
dock_pv

> <s_m_subgroupid>
dock_pv1

> <b_m_subgroup_collapsed>
0

$$$$
