CHEMBL2617_lig60
                    3D
 Schrodinger Suite 2021-1.
 88 90  0  0  1  0            999 V2000
   26.7927   73.9221   90.0371 C   0  0  0  0  0  0
   28.8086   76.8667   83.8840 C   0  0  0  0  0  0
   30.2186   72.8709   83.7063 C   0  0  0  0  0  0
   23.7717   76.7573   87.5363 C   0  0  0  0  0  0
   27.5686   77.3880   83.9055 N   0  0  0  0  0  0
   31.3638   73.5046   84.0161 N   0  0  0  0  0  0
   28.0682   74.2853   90.2338 N   0  0  0  0  0  0
   23.1177   77.9328   87.5476 N   0  0  0  0  0  0
   26.4076   72.7527   90.0152 O   0  0  0  0  0  0
   29.7492   71.9520   84.3755 O   0  0  0  0  0  0
   29.6590   77.1180   84.7373 O   0  0  0  0  0  0
   24.4392   76.3516   86.5850 O   0  0  0  0  0  0
   27.0605   78.2974   84.9436 C   0  0  0  0  0  0
   23.0560   78.9069   86.4599 C   0  0  0  0  0  0
   32.1959   73.2306   85.1954 C   0  0  0  0  0  0
   29.2239   73.3875   90.2381 C   0  0  0  0  0  0
   30.0363   73.4101   88.9416 C   0  0  0  0  0  0
   22.3422   78.4047   85.2122 C   0  0  0  0  0  0
   31.4808   73.3326   86.5448 C   0  0  0  0  0  0
   26.5851   79.6652   84.4474 C   0  0  0  0  0  0
   21.0741   77.5682   82.8703 C   0  0  0  0  0  0
   25.7024   82.1910   83.5904 C   0  0  0  0  0  0
   20.9500   77.6889   80.4170 N   0  0  0  0  0  0
   25.6714   84.7114   83.7462 N   0  0  0  0  0  0
   26.8020   80.7980   85.2394 C   0  0  0  0  0  0
   23.0967   78.0482   84.0977 C   0  0  0  0  0  0
   25.9377   79.8071   83.2165 C   0  0  0  0  0  0
   30.9519   72.3838   88.7056 C   0  0  0  0  0  0
   31.6789   72.3529   87.5191 C   0  0  0  0  0  0
   20.9459   78.3510   85.1567 C   0  0  0  0  0  0
   30.5725   74.3646   86.7827 C   0  0  0  0  0  0
   29.8555   74.4059   87.9720 C   0  0  0  0  0  0
   22.4671   77.6435   82.9305 C   0  0  0  0  0  0
   25.4838   81.0578   82.8062 C   0  0  0  0  0  0
   20.3140   77.9132   83.9925 C   0  0  0  0  0  0
   26.3654   82.0528   84.8168 C   0  0  0  0  0  0
   29.1661   75.9354   82.7193 C   0  0  0  0  0  0
   23.6184   75.9324   88.8173 C   0  0  0  0  0  0
   29.4677   73.3595   82.4648 C   0  0  0  0  0  0
   25.8160   75.0841   89.8293 C   0  0  0  0  0  0
   24.5594   74.7227   89.0063 C   0  0  0  0  0  0
   28.5005   74.5314   82.7696 C   0  0  0  0  0  0
   20.3919   77.0645   81.6036 C   0  0  0  0  0  0
   25.1589   83.5272   83.0746 C   0  0  0  0  0  0
   26.8958   77.0606   83.2228 H   0  0  0  0  0  0
   31.6840   74.2343   83.3986 H   0  0  0  0  0  0
   28.2756   75.2698   90.2990 H   0  0  0  0  0  0
   22.5996   78.1773   88.3755 H   0  0  0  0  0  0
   26.2224   77.8035   85.4334 H   0  0  0  0  0  0
   27.8028   78.4513   85.7322 H   0  0  0  0  0  0
   24.0595   79.2664   86.2203 H   0  0  0  0  0  0
   22.5222   79.7838   86.8275 H   0  0  0  0  0  0
   33.0084   73.9580   85.1960 H   0  0  0  0  0  0
   32.6636   72.2517   85.0708 H   0  0  0  0  0  0
   29.8823   73.6585   91.0647 H   0  0  0  0  0  0
   28.9172   72.3552   90.4260 H   0  0  0  0  0  0
   21.9068   77.4207   80.2200 H   0  0  0  0  0  0
   20.4062   77.5280   79.5672 H   0  0  0  0  0  0
   25.5085   84.6819   84.7427 H   0  0  0  0  0  0
   26.6595   84.8744   83.5798 H   0  0  0  0  0  0
   27.3055   80.7120   86.1908 H   0  0  0  0  0  0
   24.1727   78.0650   84.1378 H   0  0  0  0  0  0
   25.7556   78.9500   82.5861 H   0  0  0  0  0  0
   31.0908   71.5993   89.4334 H   0  0  0  0  0  0
   32.3786   71.5524   87.3478 H   0  0  0  0  0  0
   20.3555   78.6401   86.0148 H   0  0  0  0  0  0
   30.4048   75.1242   86.0342 H   0  0  0  0  0  0
   29.1519   75.2098   88.1174 H   0  0  0  0  0  0
   23.0702   77.3688   82.0788 H   0  0  0  0  0  0
   24.9592   81.1478   81.8656 H   0  0  0  0  0  0
   19.2371   77.8550   83.9639 H   0  0  0  0  0  0
   26.5381   82.9042   85.4552 H   0  0  0  0  0  0
   30.2523   75.8323   82.7189 H   0  0  0  0  0  0
   28.9511   76.4366   81.7761 H   0  0  0  0  0  0
   23.7441   76.6111   89.6590 H   0  0  0  0  0  0
   22.5899   75.5678   88.8171 H   0  0  0  0  0  0
   30.1674   73.6072   81.6670 H   0  0  0  0  0  0
   28.8927   72.5087   82.0952 H   0  0  0  0  0  0
   26.3390   75.9070   89.3385 H   0  0  0  0  0  0
   25.5203   75.4387   90.8174 H   0  0  0  0  0  0
   24.0047   73.9531   89.5441 H   0  0  0  0  0  0
   24.8311   74.2745   88.0484 H   0  0  0  0  0  0
   27.6960   74.5044   82.0349 H   0  0  0  0  0  0
   27.9930   74.3603   83.7232 H   0  0  0  0  0  0
   20.4826   75.9798   81.5387 H   0  0  0  0  0  0
   19.3297   77.3007   81.6368 H   0  0  0  0  0  0
   25.3830   83.6193   82.0107 H   0  0  0  0  0  0
   24.0730   83.5182   83.1796 H   0  0  0  0  0  0
  1  7  1  0  0  0
  1  9  2  0  0  0
  1 40  1  0  0  0
  2 37  1  0  0  0
  2  5  1  0  0  0
  2 11  2  0  0  0
  3  6  1  0  0  0
  3 10  2  0  0  0
  3 39  1  0  0  0
  4 38  1  0  0  0
  4  8  1  0  0  0
  4 12  2  0  0  0
  5 13  1  0  0  0
  5 45  1  0  0  0
  6 15  1  0  0  0
  6 46  1  0  0  0
  7 16  1  0  0  0
  7 47  1  0  0  0
  8 14  1  0  0  0
  8 48  1  0  0  0
 13 20  1  0  0  0
 13 49  1  0  0  0
 13 50  1  0  0  0
 14 18  1  0  0  0
 14 51  1  0  0  0
 14 52  1  0  0  0
 15 19  1  0  0  0
 15 53  1  0  0  0
 15 54  1  0  0  0
 16 17  1  0  0  0
 16 55  1  0  0  0
 16 56  1  0  0  0
 17 28  1  0  0  0
 17 32  2  0  0  0
 18 26  2  0  0  0
 18 30  1  0  0  0
 19 31  2  0  0  0
 19 29  1  0  0  0
 20 25  2  0  0  0
 20 27  1  0  0  0
 21 35  1  0  0  0
 21 43  1  0  0  0
 21 33  2  0  0  0
 22 34  1  0  0  0
 22 44  1  0  0  0
 22 36  2  0  0  0
 23 43  1  0  0  0
 23 57  1  0  0  0
 23 58  1  0  0  0
 24 44  1  0  0  0
 24 59  1  0  0  0
 24 60  1  0  0  0
 25 36  1  0  0  0
 25 61  1  0  0  0
 26 33  1  0  0  0
 26 62  1  0  0  0
 27 34  2  0  0  0
 27 63  1  0  0  0
 28 29  2  0  0  0
 28 64  1  0  0  0
 29 65  1  0  0  0
 30 35  2  0  0  0
 30 66  1  0  0  0
 31 32  1  0  0  0
 31 67  1  0  0  0
 32 68  1  0  0  0
 33 69  1  0  0  0
 34 70  1  0  0  0
 35 71  1  0  0  0
 36 72  1  0  0  0
 37 42  1  0  0  0
 37 73  1  0  0  0
 37 74  1  0  0  0
 38 41  1  0  0  0
 38 75  1  0  0  0
 38 76  1  0  0  0
 39 42  1  0  0  0
 39 77  1  0  0  0
 39 78  1  0  0  0
 40 41  1  0  0  0
 40 79  1  0  0  0
 40 80  1  0  0  0
 41 81  1  0  0  0
 41 82  1  0  0  0
 42 83  1  0  0  0
 42 84  1  0  0  0
 43 85  1  0  0  0
 43 86  1  0  0  0
 44 87  1  0  0  0
 44 88  1  0  0  0
M  END
> <s_m_entry_id>
40546

> <s_m_entry_name>
dock_pv.2

> <s_m_Source_Path>
/home/csk/Desktop/cluster/DUD-E-result/tryb1

> <s_m_Source_File>
dock_pv.maegz

> <i_m_Source_File_Index>
2

> <chembl_id>
CHEMBL306537

> <chembl_pref_name>
None

> <i_lp_mmshare_version>
53161

> <r_lp_tautomer_probability>
1

> <s_lp_Force_Field>
OPLS_2005

> <r_lp_Energy>
11.290443

> <b_lp_Chiralities_Consistent>
1

> <s_lp_Variant>
CHEMBL2617_lig60-1

> <s_i_glide_gridfile>
glide-grid_2zec

> <i_i_glide_lignum>
65

> <i_i_glide_rotatable_bonds>
22

> <r_i_docking_score>
-9.84936975709682

> <r_i_glide_ligand_efficiency>
-0.223849312661291

> <r_i_glide_ligand_efficiency_sa>
-0.790266047320834

> <r_i_glide_ligand_efficiency_ln>
-2.05873314202852

> <r_i_glide_gscore>
-9.84936975709682

> <r_i_glide_lipo>
-4.56126003682548

> <r_i_glide_hbond>
-0.993670612448576

> <r_i_glide_metal>
0

> <r_i_glide_rewards>
-0.689904735935235

> <r_i_glide_evdw>
-60.9687232971191

> <r_i_glide_ecoul>
-10.6298456192017

> <r_i_glide_erotb>
1.04668954940406

> <r_i_glide_esite>
-0.00831091355538269

> <r_i_glide_emodel>
-105.510534808708

> <r_i_glide_energy>
-71.5985689163208

> <r_i_glide_einternal>
12.8311185836792

> <i_i_glide_confnum>
3

> <i_i_glide_posenum>
103

> <r_i_glide_eff_state_penalty>
0

> <s_user_duplicate_titles>
CHEMBL2617_lig60

> <i_f3d_flags>
0

> <s_m_subgroup_title>
dock_pv

> <s_m_subgroupid>
dock_pv

> <b_m_subgroup_collapsed>
1

$$$$
CHEMBL2617_lig46
                    3D
 Schrodinger Suite 2021-1.
 80 82  0  0  1  0            999 V2000
   20.7776   77.5514   81.8002 C   0  0  0  0  0  0
   31.2281   72.3435   94.9081 C   0  0  0  0  0  0
   36.5068   73.2060   88.1394 C   0  0  0  0  0  0
   26.3060   77.1434   88.8410 C   0  0  0  0  0  0
   35.3515   72.5662   87.3607 C   0  0  0  0  0  0
   26.6567   75.6509   88.7195 C   0  0  0  0  0  0
   36.1627   73.6173   89.5751 C   0  0  0  0  0  0
   24.8513   77.5692   88.5838 C   0  0  0  0  0  0
   31.3358   73.4117   93.9783 N   0  0  0  0  0  0
   21.8733   78.2264   82.3934 N   0  0  0  0  0  0
   19.7500   77.1518   82.3941 N   0  0  0  0  0  0
   32.1505   71.5520   95.2169 N   0  0  0  0  0  0
   36.1097   74.9351   89.8423 N   0  0  0  0  0  0
   34.2408   73.3090   87.2108 N   0  0  0  0  0  0
   27.6299   75.2189   89.5412 N   0  0  0  0  0  0
   24.6882   78.8246   88.1332 N   0  0  0  0  0  0
   35.4860   71.4434   86.8750 O   0  0  0  0  0  0
   35.9325   72.7520   90.4168 O   0  0  0  0  0  0
   26.0989   74.9188   87.8995 O   0  0  0  0  0  0
   23.9075   76.8124   88.8162 O   0  0  0  0  0  0
   20.9500   77.3605   80.4193 N   0  0  0  0  0  0
   29.9450   72.2352   95.4696 N   0  0  0  0  0  0
   22.1962   78.5011   83.7305 C   0  0  0  0  0  0
   32.4605   73.9496   93.3294 C   0  0  0  0  0  0
   28.1541   73.8519   89.6008 C   0  0  0  0  0  0
   35.8513   75.5383   91.1570 C   0  0  0  0  0  0
   33.0251   72.9038   86.5065 C   0  0  0  0  0  0
   23.4118   79.4384   87.7668 C   0  0  0  0  0  0
   31.7594   73.1568   87.3160 C   0  0  0  0  0  0
   22.9905   79.0978   86.3454 C   0  0  0  0  0  0
   34.6463   74.9976   91.9279 C   0  0  0  0  0  0
   29.4331   73.6280   88.7951 C   0  0  0  0  0  0
   21.6379   77.8123   84.8141 C   0  0  0  0  0  0
   23.1451   79.4956   83.9719 C   0  0  0  0  0  0
   33.7475   73.8955   93.8799 C   0  0  0  0  0  0
   32.2752   74.5673   92.0906 C   0  0  0  0  0  0
   30.5208   72.9804   89.3874 C   0  0  0  0  0  0
   23.5360   79.8025   85.2712 C   0  0  0  0  0  0
   31.6812   72.7534   88.6530 C   0  0  0  0  0  0
   33.3609   75.0847   91.3874 C   0  0  0  0  0  0
   22.0349   78.1080   86.1146 C   0  0  0  0  0  0
   29.5209   74.0497   87.4639 C   0  0  0  0  0  0
   34.8344   74.4145   93.1834 C   0  0  0  0  0  0
   30.6751   73.8096   86.7252 C   0  0  0  0  0  0
   36.8588   74.0663   87.5679 H   0  0  0  0  0  0
   37.3457   72.5113   88.1816 H   0  0  0  0  0  0
   26.5714   77.4974   89.8373 H   0  0  0  0  0  0
   26.9606   77.6791   88.1521 H   0  0  0  0  0  0
   30.5011   73.9640   93.8707 H   0  0  0  0  0  0
   22.6305   78.4073   81.7500 H   0  0  0  0  0  0
   19.1479   76.6629   81.7476 H   0  0  0  0  0  0
   31.8704   70.8741   95.9166 H   0  0  0  0  0  0
   36.3702   75.5757   89.1086 H   0  0  0  0  0  0
   34.2425   74.2495   87.5748 H   0  0  0  0  0  0
   28.0904   75.8973   90.1299 H   0  0  0  0  0  0
   25.5134   79.3651   87.9231 H   0  0  0  0  0  0
   20.1487   77.1785   79.8278 H   0  0  0  0  0  0
   21.6612   77.8897   79.9343 H   0  0  0  0  0  0
   29.7041   71.4322   96.0315 H   0  0  0  0  0  0
   29.1485   72.6646   95.0234 H   0  0  0  0  0  0
   27.4119   73.1457   89.2262 H   0  0  0  0  0  0
   28.3176   73.6024   90.6492 H   0  0  0  0  0  0
   35.6968   76.6088   91.0073 H   0  0  0  0  0  0
   36.7597   75.4594   91.7580 H   0  0  0  0  0  0
   32.9905   73.4493   85.5615 H   0  0  0  0  0  0
   33.0474   71.8441   86.2425 H   0  0  0  0  0  0
   22.6214   79.1538   88.4663 H   0  0  0  0  0  0
   23.5129   80.5225   87.8523 H   0  0  0  0  0  0
   20.9120   77.0289   84.6577 H   0  0  0  0  0  0
   23.5880   80.0380   83.1490 H   0  0  0  0  0  0
   33.9166   73.4473   94.8481 H   0  0  0  0  0  0
   31.2882   74.6344   91.6585 H   0  0  0  0  0  0
   30.4753   72.6440   90.4146 H   0  0  0  0  0  0
   24.2722   80.5758   85.4404 H   0  0  0  0  0  0
   32.5189   72.2617   89.1245 H   0  0  0  0  0  0
   33.2041   75.5379   90.4199 H   0  0  0  0  0  0
   21.6114   77.5568   86.9405 H   0  0  0  0  0  0
   28.6880   74.5488   86.9897 H   0  0  0  0  0  0
   35.8211   74.3531   93.6167 H   0  0  0  0  0  0
   30.7213   74.1335   85.6946 H   0  0  0  0  0  0
  1 10  1  0  0  0
  1 11  2  0  0  0
  1 21  1  0  0  0
  2  9  1  0  0  0
  2 12  2  0  0  0
  2 22  1  0  0  0
  3  5  1  0  0  0
  3  7  1  0  0  0
  3 45  1  0  0  0
  3 46  1  0  0  0
  4  8  1  0  0  0
  4  6  1  0  0  0
  4 47  1  0  0  0
  4 48  1  0  0  0
  5 14  1  0  0  0
  5 17  2  0  0  0
  6 15  1  0  0  0
  6 19  2  0  0  0
  7 13  1  0  0  0
  7 18  2  0  0  0
  8 16  1  0  0  0
  8 20  2  0  0  0
  9 24  1  0  0  0
  9 49  1  0  0  0
 10 23  1  0  0  0
 10 50  1  0  0  0
 11 51  1  0  0  0
 12 52  1  0  0  0
 13 26  1  0  0  0
 13 53  1  0  0  0
 14 27  1  0  0  0
 14 54  1  0  0  0
 15 25  1  0  0  0
 15 55  1  0  0  0
 16 28  1  0  0  0
 16 56  1  0  0  0
 21 57  1  0  0  0
 21 58  1  0  0  0
 22 59  1  0  0  0
 22 60  1  0  0  0
 23 33  2  0  0  0
 23 34  1  0  0  0
 24 35  1  0  0  0
 24 36  2  0  0  0
 25 32  1  0  0  0
 25 61  1  0  0  0
 25 62  1  0  0  0
 26 31  1  0  0  0
 26 63  1  0  0  0
 26 64  1  0  0  0
 27 29  1  0  0  0
 27 65  1  0  0  0
 27 66  1  0  0  0
 28 30  1  0  0  0
 28 67  1  0  0  0
 28 68  1  0  0  0
 29 44  1  0  0  0
 29 39  2  0  0  0
 30 38  1  0  0  0
 30 41  2  0  0  0
 31 40  2  0  0  0
 31 43  1  0  0  0
 32 37  2  0  0  0
 32 42  1  0  0  0
 33 41  1  0  0  0
 33 69  1  0  0  0
 34 38  2  0  0  0
 34 70  1  0  0  0
 35 43  2  0  0  0
 35 71  1  0  0  0
 36 40  1  0  0  0
 36 72  1  0  0  0
 37 39  1  0  0  0
 37 73  1  0  0  0
 38 74  1  0  0  0
 39 75  1  0  0  0
 40 76  1  0  0  0
 41 77  1  0  0  0
 42 44  2  0  0  0
 42 78  1  0  0  0
 43 79  1  0  0  0
 44 80  1  0  0  0
M  END
> <s_m_entry_id>
40547

> <s_m_entry_name>
dock_pv.3

> <s_m_Source_Path>
/home/csk/Desktop/cluster/DUD-E-result/tryb1

> <s_m_Source_File>
dock_pv.maegz

> <i_m_Source_File_Index>
3

> <chembl_id>
CHEMBL46120

> <chembl_pref_name>
None

> <i_lp_mmshare_version>
53161

> <r_lp_tautomer_probability>
1

> <s_lp_Force_Field>
OPLS_2005

> <r_lp_Energy>
-8.155974

> <b_lp_Chiralities_Consistent>
1

> <s_lp_Variant>
CHEMBL2617_lig46-1

> <s_i_glide_gridfile>
glide-grid_2zec

> <i_i_glide_lignum>
51

> <i_i_glide_rotatable_bonds>
20

> <r_i_docking_score>
-8.98806070090028

> <r_i_glide_ligand_efficiency>
-0.204274106838643

> <r_i_glide_ligand_efficiency_sa>
-0.721158752118354

> <r_i_glide_ligand_efficiency_ln>
-1.87870075993184

> <r_i_glide_gscore>
-8.98806070090028

> <r_i_glide_lipo>
-2.37564810018168

> <r_i_glide_hbond>
-1.99536489631858

> <r_i_glide_metal>
0

> <r_i_glide_rewards>
-0.014558264153659

> <r_i_glide_evdw>
-66.0760726928711

> <r_i_glide_ecoul>
-15.4010648727417

> <r_i_glide_erotb>
1.047039502136

> <r_i_glide_esite>
-0.0355655768275556

> <r_i_glide_emodel>
-120.937681198699

> <r_i_glide_energy>
-81.4771375656128

> <r_i_glide_einternal>
9.26834392547607

> <i_i_glide_confnum>
32

> <i_i_glide_posenum>
304

> <r_i_glide_eff_state_penalty>
0

> <s_user_duplicate_titles>
CHEMBL2617_lig46

> <i_f3d_flags>
0

> <s_m_subgroup_title>
dock_pv

> <s_m_subgroupid>
dock_pv

> <b_m_subgroup_collapsed>
1

$$$$
CHEMBL2617_lig84
                    3D
 Schrodinger Suite 2021-1.
 72 75  0  0  1  0            999 V2000
   27.2431   75.5276   88.3400 C   0  0  0  0  0  0
   26.3142   76.2738   89.0021 N   0  0  0  0  0  0
   23.1206   79.2553   86.3191 C   0  0  0  0  0  0
   20.3995   77.1534   81.6170 C   0  0  0  0  0  0
   22.5378   79.0252   87.5066 N   0  0  0  0  0  0
   22.3947   78.7111   85.1116 C   0  0  0  0  0  0
   21.0995   77.6733   82.8186 C   0  0  0  0  0  0
   19.3534   76.4651   81.7361 N   0  0  0  0  0  0
   27.0488   74.3526   88.0184 O   0  0  0  0  0  0
   30.9431   74.5836   85.5507 C   0  0  0  0  0  0
   24.9604   75.7335   89.2583 C   0  0  0  0  0  0
   26.6004   77.5796   89.6488 C   0  0  0  0  0  0
   24.2136   79.8110   86.2077 O   0  0  0  0  0  0
   28.3768   76.1808   88.0141 N   0  0  0  0  0  0
   23.1209   78.4226   83.9535 C   0  0  0  0  0  0
   22.4834   77.9056   82.8334 C   0  0  0  0  0  0
   21.0132   78.4662   85.1226 C   0  0  0  0  0  0
   20.3809   77.9531   83.9930 C   0  0  0  0  0  0
   30.8827   73.7707   84.2509 C   0  0  0  0  0  0
   32.0892   74.1116   86.4510 C   0  0  0  0  0  0
   20.9493   77.5460   80.4190 N   0  0  0  0  0  0
   23.1336   79.2513   88.8201 C   0  0  0  0  0  0
   23.9692   76.7612   88.6656 C   0  0  0  0  0  0
   25.6140   78.5984   89.0423 C   0  0  0  0  0  0
   24.1514   78.1722   89.2900 C   0  0  0  0  0  0
   29.6467   75.6095   87.5610 C   0  0  0  0  0  0
   29.5826   74.7271   86.2934 C   0  0  0  0  0  0
   32.0145   72.8746   87.1006 C   0  0  0  0  0  0
   29.9894   72.7029   84.0910 C   0  0  0  0  0  0
   31.7578   74.0988   83.2072 C   0  0  0  0  0  0
   33.2156   74.9255   86.6298 C   0  0  0  0  0  0
   29.9782   71.9731   82.9077 C   0  0  0  0  0  0
   31.7427   73.3708   82.0210 C   0  0  0  0  0  0
   34.2637   74.4986   87.4415 C   0  0  0  0  0  0
   33.0647   72.4497   87.9104 C   0  0  0  0  0  0
   34.1863   73.2588   88.0745 C   0  0  0  0  0  0
   30.8547   72.3082   81.8787 C   0  0  0  0  0  0
   21.5887   78.6767   87.5063 H   0  0  0  0  0  0
   18.9609   76.2493   80.8318 H   0  0  0  0  0  0
   31.1791   75.6022   85.2337 H   0  0  0  0  0  0
   24.7977   74.7471   88.8204 H   0  0  0  0  0  0
   24.8235   75.6469   90.3366 H   0  0  0  0  0  0
   26.4063   77.4673   90.7169 H   0  0  0  0  0  0
   27.6348   77.9133   89.5648 H   0  0  0  0  0  0
   28.3885   77.1766   88.1746 H   0  0  0  0  0  0
   24.1906   78.5820   83.9131 H   0  0  0  0  0  0
   23.0984   77.6593   81.9851 H   0  0  0  0  0  0
   20.4090   78.6880   85.9917 H   0  0  0  0  0  0
   19.3134   77.7848   84.0322 H   0  0  0  0  0  0
   20.4370   77.4480   79.5455 H   0  0  0  0  0  0
   21.8682   77.9777   80.3849 H   0  0  0  0  0  0
   22.2995   79.2604   89.5230 H   0  0  0  0  0  0
   23.5620   80.2553   88.8794 H   0  0  0  0  0  0
   24.0758   76.7968   87.5803 H   0  0  0  0  0  0
   22.9476   76.4119   88.8058 H   0  0  0  0  0  0
   25.7907   79.5743   89.4977 H   0  0  0  0  0  0
   25.8079   78.7553   87.9799 H   0  0  0  0  0  0
   24.0393   78.0718   90.3708 H   0  0  0  0  0  0
   30.1453   75.0817   88.3755 H   0  0  0  0  0  0
   30.2882   76.4679   87.3518 H   0  0  0  0  0  0
   28.8465   75.1386   85.6013 H   0  0  0  0  0  0
   29.2016   73.7504   86.5902 H   0  0  0  0  0  0
   31.1457   72.2414   86.9753 H   0  0  0  0  0  0
   29.3075   72.4166   84.8760 H   0  0  0  0  0  0
   32.4566   74.9165   83.3168 H   0  0  0  0  0  0
   33.2814   75.8884   86.1423 H   0  0  0  0  0  0
   29.2916   71.1486   82.7908 H   0  0  0  0  0  0
   32.4201   73.6231   81.2177 H   0  0  0  0  0  0
   35.1295   75.1311   87.5810 H   0  0  0  0  0  0
   33.0074   71.5027   88.4157 H   0  0  0  0  0  0
   34.9975   72.9267   88.7072 H   0  0  0  0  0  0
   30.8382   71.7411   80.9586 H   0  0  0  0  0  0
  1  2  1  0  0  0
  1  9  2  0  0  0
  1 14  1  0  0  0
  2 11  1  0  0  0
  2 12  1  0  0  0
  3  5  1  0  0  0
  3  6  1  0  0  0
  3 13  2  0  0  0
  4  7  1  0  0  0
  4  8  2  0  0  0
  4 21  1  0  0  0
  5 22  1  0  0  0
  5 38  1  0  0  0
  6 15  1  0  0  0
  6 17  2  0  0  0
  7 18  2  0  0  0
  7 16  1  0  0  0
  8 39  1  0  0  0
 10 27  1  0  0  0
 10 19  1  0  0  0
 10 20  1  0  0  0
 10 40  1  0  0  0
 11 23  1  0  0  0
 11 41  1  0  0  0
 11 42  1  0  0  0
 12 24  1  0  0  0
 12 43  1  0  0  0
 12 44  1  0  0  0
 14 26  1  0  0  0
 14 45  1  0  0  0
 15 16  2  0  0  0
 15 46  1  0  0  0
 16 47  1  0  0  0
 17 18  1  0  0  0
 17 48  1  0  0  0
 18 49  1  0  0  0
 19 29  2  0  0  0
 19 30  1  0  0  0
 20 28  1  0  0  0
 20 31  2  0  0  0
 21 50  1  0  0  0
 21 51  1  0  0  0
 22 25  1  0  0  0
 22 52  1  0  0  0
 22 53  1  0  0  0
 23 25  1  0  0  0
 23 54  1  0  0  0
 23 55  1  0  0  0
 24 25  1  0  0  0
 24 56  1  0  0  0
 24 57  1  0  0  0
 25 58  1  0  0  0
 26 27  1  0  0  0
 26 59  1  0  0  0
 26 60  1  0  0  0
 27 61  1  0  0  0
 27 62  1  0  0  0
 28 35  2  0  0  0
 28 63  1  0  0  0
 29 32  1  0  0  0
 29 64  1  0  0  0
 30 33  2  0  0  0
 30 65  1  0  0  0
 31 34  1  0  0  0
 31 66  1  0  0  0
 32 37  2  0  0  0
 32 67  1  0  0  0
 33 37  1  0  0  0
 33 68  1  0  0  0
 34 36  2  0  0  0
 34 69  1  0  0  0
 35 36  1  0  0  0
 35 70  1  0  0  0
 36 71  1  0  0  0
 37 72  1  0  0  0
M  END
> <s_m_entry_id>
40548

> <s_m_entry_name>
dock_pv.4

> <s_m_Source_Path>
/home/csk/Desktop/cluster/DUD-E-result/tryb1

> <s_m_Source_File>
dock_pv.maegz

> <i_m_Source_File_Index>
4

> <chembl_id>
CHEMBL75205

> <chembl_pref_name>
None

> <i_lp_mmshare_version>
53161

> <r_lp_tautomer_probability>
1

> <s_lp_Force_Field>
OPLS_2005

> <r_lp_Energy>
43.931818

> <b_lp_Chiralities_Consistent>
1

> <s_lp_Variant>
CHEMBL2617_lig84-1

> <s_i_glide_gridfile>
glide-grid_2zec

> <i_i_glide_lignum>
109

> <i_i_glide_rotatable_bonds>
12

> <r_i_docking_score>
-8.07396177940505

> <r_i_glide_ligand_efficiency>
-0.218215183227164

> <r_i_glide_ligand_efficiency_sa>
-0.727141401035264

> <r_i_glide_ligand_efficiency_ln>
-1.75105302943354

> <r_i_glide_gscore>
-8.07396177940505

> <r_i_glide_lipo>
-3.18572570909489

> <r_i_glide_hbond>
-1.14589274808436

> <r_i_glide_metal>
0

> <r_i_glide_rewards>
-0.646044791355313

> <r_i_glide_evdw>
-46.7185478210449

> <r_i_glide_ecoul>
-10.7967748641968

> <r_i_glide_erotb>
0.906187163192662

> <r_i_glide_esite>
-0.0470420733813941

> <r_i_glide_emodel>
-78.1454437574498

> <r_i_glide_energy>
-57.5153226852417

> <r_i_glide_einternal>
12.339316368103

> <i_i_glide_confnum>
1

> <i_i_glide_posenum>
27

> <r_i_glide_eff_state_penalty>
0

> <s_user_duplicate_titles>
CHEMBL2617_lig84,120574

> <i_f3d_flags>
0

> <s_m_subgroup_title>
dock_pv

> <s_m_subgroupid>
dock_pv

> <b_m_subgroup_collapsed>
1

$$$$
CHEMBL2617_lig117
                    3D
 Schrodinger Suite 2021-1.
 57 61  0  0  1  0            999 V2000
   28.4065   78.0142   82.7471 C   0  0  0  0  0  0
   29.0520   75.7837   82.8158 N   0  0  0  0  0  0
   28.1487   76.7424   83.2316 C   0  0  0  0  0  0
   27.5756   79.2102   82.8501 C   0  0  0  0  0  0
   28.8658   74.3965   83.1503 C   0  0  0  0  0  0
   29.5967   77.8283   81.9533 C   0  0  0  0  0  0
   29.9500   76.4366   81.9697 C   0  0  0  0  0  0
   26.5917   79.3537   83.7912 N   0  0  0  0  0  0
   30.0034   73.5118   83.1206 C   0  0  0  0  0  0
   31.5839   73.9542   83.7264 S   0  0  0  0  0  0
   22.3972   78.4470   84.3110 C   0  0  0  0  0  0
   27.7927   80.0964   82.0215 O   0  0  0  0  0  0
   27.7488   73.9551   83.4329 O   0  0  0  0  0  0
   25.7026   80.5348   83.7326 C   0  0  0  0  0  0
   26.3070   78.5030   84.9623 C   0  0  0  0  0  0
   29.9697   72.1682   82.7591 C   0  0  0  0  0  0
   23.8160   78.9953   84.5326 C   0  0  0  0  0  0
   32.2054   72.3870   83.3180 C   0  0  0  0  0  0
   21.9657   77.9638   83.0623 C   0  0  0  0  0  0
   31.2190   71.5518   82.8167 C   0  0  0  0  0  0
   24.8843   77.9038   84.7991 C   0  0  0  0  0  0
   24.2750   80.0097   83.4576 C   0  0  0  0  0  0
   20.6385   77.5300   82.8795 C   0  0  0  0  0  0
   30.3780   78.7091   81.1799 C   0  0  0  0  0  0
   30.9982   75.9457   81.1675 C   0  0  0  0  0  0
   20.9502   77.1522   80.4167 N   0  0  0  0  0  0
   21.4916   78.4565   85.3794 C   0  0  0  0  0  0
   20.1844   78.0134   85.2050 C   0  0  0  0  0  0
   20.0692   77.0224   81.5538 C   0  0  0  0  0  0
   19.7648   77.5521   83.9649 C   0  0  0  0  0  0
   31.7337   76.8606   80.4181 C   0  0  0  0  0  0
   31.4425   78.2171   80.4324 C   0  0  0  0  0  0
   27.2945   76.3990   83.7974 H   0  0  0  0  0  0
   25.7417   81.0290   84.7046 H   0  0  0  0  0  0
   26.0183   81.2993   83.0210 H   0  0  0  0  0  0
   27.1028   77.8193   85.2496 H   0  0  0  0  0  0
   26.2878   79.1865   85.8135 H   0  0  0  0  0  0
   29.0787   71.6618   82.4166 H   0  0  0  0  0  0
   23.7398   79.5753   85.4557 H   0  0  0  0  0  0
   33.2477   72.1506   83.4810 H   0  0  0  0  0  0
   22.6592   77.9388   82.2340 H   0  0  0  0  0  0
   31.3840   70.5242   82.5246 H   0  0  0  0  0  0
   24.8833   77.1514   84.0168 H   0  0  0  0  0  0
   24.6506   77.3905   85.7323 H   0  0  0  0  0  0
   23.6123   80.8749   83.4743 H   0  0  0  0  0  0
   24.2394   79.5834   82.4537 H   0  0  0  0  0  0
   30.1435   79.7632   81.1500 H   0  0  0  0  0  0
   31.2385   74.8956   81.1034 H   0  0  0  0  0  0
   20.4120   77.1473   79.5508 H   0  0  0  0  0  0
   21.4208   78.0483   80.4195 H   0  0  0  0  0  0
   21.7910   78.8260   86.3498 H   0  0  0  0  0  0
   19.4781   78.0500   86.0176 H   0  0  0  0  0  0
   19.7977   75.9707   81.6557 H   0  0  0  0  0  0
   19.1560   77.5631   81.3152 H   0  0  0  0  0  0
   18.7455   77.2202   83.8457 H   0  0  0  0  0  0
   32.5491   76.5052   79.8018 H   0  0  0  0  0  0
   32.0363   78.8949   79.8352 H   0  0  0  0  0  0
  1  3  2  0  0  0
  1  4  1  0  0  0
  1  6  1  0  0  0
  2  3  1  0  0  0
  2  5  1  0  0  0
  2  7  1  0  0  0
  3 33  1  0  0  0
  4  8  1  0  0  0
  4 12  2  0  0  0
  5  9  1  0  0  0
  5 13  2  0  0  0
  6  7  2  0  0  0
  6 24  1  0  0  0
  7 25  1  0  0  0
  8 14  1  0  0  0
  8 15  1  0  0  0
  9 10  1  0  0  0
  9 16  2  0  0  0
 10 18  1  0  0  0
 11 17  1  0  0  0
 11 19  2  0  0  0
 11 27  1  0  0  0
 14 22  1  0  0  0
 14 34  1  0  0  0
 14 35  1  0  0  0
 15 21  1  0  0  0
 15 36  1  0  0  0
 15 37  1  0  0  0
 16 20  1  0  0  0
 16 38  1  0  0  0
 17 21  1  0  0  0
 17 22  1  0  0  0
 17 39  1  0  0  0
 18 20  2  0  0  0
 18 40  1  0  0  0
 19 23  1  0  0  0
 19 41  1  0  0  0
 20 42  1  0  0  0
 21 43  1  0  0  0
 21 44  1  0  0  0
 22 45  1  0  0  0
 22 46  1  0  0  0
 23 29  1  0  0  0
 23 30  2  0  0  0
 24 32  2  0  0  0
 24 47  1  0  0  0
 25 31  2  0  0  0
 25 48  1  0  0  0
 26 29  1  0  0  0
 26 49  1  0  0  0
 26 50  1  0  0  0
 27 28  2  0  0  0
 27 51  1  0  0  0
 28 30  1  0  0  0
 28 52  1  0  0  0
 29 53  1  0  0  0
 29 54  1  0  0  0
 30 55  1  0  0  0
 31 32  1  0  0  0
 31 56  1  0  0  0
 32 57  1  0  0  0
M  END
> <s_m_entry_id>
40549

> <s_m_entry_name>
dock_pv.5

> <s_m_Source_Path>
/home/csk/Desktop/cluster/DUD-E-result/tryb1

> <s_m_Source_File>
dock_pv.maegz

> <i_m_Source_File_Index>
5

> <chembl_id>
CHEMBL192214

> <chembl_pref_name>
None

> <i_lp_mmshare_version>
53161

> <r_lp_tautomer_probability>
1

> <s_lp_Force_Field>
OPLS_2005

> <r_lp_Energy>
46.790219

> <b_lp_Chiralities_Consistent>
1

> <s_lp_Variant>
CHEMBL2617_lig117-1

> <s_i_glide_gridfile>
glide-grid_2zec

> <i_i_glide_lignum>
144

> <i_i_glide_rotatable_bonds>
6

> <r_i_docking_score>
-7.74358678245819

> <r_i_glide_ligand_efficiency>
-0.241987086951818

> <r_i_glide_ligand_efficiency_sa>
-0.768261111892543

> <r_i_glide_ligand_efficiency_ln>
-1.73400016279589

> <r_i_glide_gscore>
-7.74358678245819

> <r_i_glide_lipo>
-3.69144595418914

> <r_i_glide_hbond>
-0.223635335643967

> <r_i_glide_metal>
0

> <r_i_glide_rewards>
-1.01448930627094

> <r_i_glide_evdw>
-48.0594520568848

> <r_i_glide_ecoul>
-6.12750053405762

> <r_i_glide_erotb>
0.508081496598734

> <r_i_glide_esite>
0

> <r_i_glide_emodel>
-72.9688922063642

> <r_i_glide_energy>
-54.1869525909424

> <r_i_glide_einternal>
9.07755947113037

> <i_i_glide_confnum>
9

> <i_i_glide_posenum>
44

> <r_i_glide_eff_state_penalty>
0

> <s_user_duplicate_titles>
CHEMBL2617_lig117,319432

> <i_f3d_flags>
0

> <s_m_subgroup_title>
dock_pv

> <s_m_subgroupid>
dock_pv

> <b_m_subgroup_collapsed>
1

$$$$
CHEMBL2617_lig79
                    3D
 Schrodinger Suite 2021-1.
 71 74  0  0  1  0            999 V2000
   23.9182   77.4166   88.2554 C   0  0  0  0  0  0
   28.2989   74.3473   89.0521 C   0  0  0  0  0  0
   24.7380   76.3328   88.3835 N   0  0  0  0  0  0
   27.3007   75.2390   88.7856 N   0  0  0  0  0  0
   20.3695   77.1523   81.5855 C   0  0  0  0  0  0
   23.7995   77.9079   87.0089 N   0  0  0  0  0  0
   20.9989   77.6369   82.8493 C   0  0  0  0  0  0
   19.3502   76.4233   81.6224 N   0  0  0  0  0  0
   26.9263   75.7163   87.4337 C   0  0  0  0  0  0
   25.3892   75.6073   87.2702 C   0  0  0  0  0  0
   26.6036   75.9111   89.9048 C   0  0  0  0  0  0
   25.0752   75.7880   89.7088 C   0  0  0  0  0  0
   23.3510   77.9517   89.2129 O   0  0  0  0  0  0
   28.4809   73.8773   90.1781 O   0  0  0  0  0  0
   31.5600   73.2124   85.8063 C   0  0  0  0  0  0
   29.1122   74.0298   88.0218 N   0  0  0  0  0  0
   32.8905   73.5207   85.1080 C   0  0  0  0  0  0
   30.3530   73.5104   84.9036 C   0  0  0  0  0  0
   20.4739   77.2497   84.0984 C   0  0  0  0  0  0
   22.1122   78.4975   82.8584 C   0  0  0  0  0  0
   20.9500   77.5801   80.4181 N   0  0  0  0  0  0
   22.8401   78.9168   86.5636 C   0  0  0  0  0  0
   22.1805   78.4868   85.2665 C   0  0  0  0  0  0
   21.0520   77.6711   85.2915 C   0  0  0  0  0  0
   22.6927   78.9235   84.0473 C   0  0  0  0  0  0
   30.3544   73.2592   88.1341 C   0  0  0  0  0  0
   31.4958   73.8024   87.2446 C   0  0  0  0  0  0
   29.7268   74.7633   84.9052 C   0  0  0  0  0  0
   29.8836   72.5108   84.0432 C   0  0  0  0  0  0
   33.6948   72.4760   84.6346 C   0  0  0  0  0  0
   33.3195   74.8440   84.9522 C   0  0  0  0  0  0
   28.8009   72.7523   83.2033 C   0  0  0  0  0  0
   34.9127   72.7524   84.0173 C   0  0  0  0  0  0
   34.5359   75.1191   84.3309 C   0  0  0  0  0  0
   28.6401   75.0052   84.0659 C   0  0  0  0  0  0
   35.3285   74.0724   83.8673 C   0  0  0  0  0  0
   28.1825   73.9990   83.2182 C   0  0  0  0  0  0
   24.4424   77.5782   86.3064 H   0  0  0  0  0  0
   19.0186   76.2380   80.6865 H   0  0  0  0  0  0
   27.2276   76.7614   87.3439 H   0  0  0  0  0  0
   27.4070   75.1537   86.6345 H   0  0  0  0  0  0
   25.0833   74.5619   87.3380 H   0  0  0  0  0  0
   25.0730   75.9466   86.2839 H   0  0  0  0  0  0
   26.8831   75.5168   90.8831 H   0  0  0  0  0  0
   26.8839   76.9652   89.8896 H   0  0  0  0  0  0
   24.7732   74.7407   89.7414 H   0  0  0  0  0  0
   24.5500   76.2968   90.5176 H   0  0  0  0  0  0
   31.5443   72.1374   85.9813 H   0  0  0  0  0  0
   28.8861   74.3680   87.0989 H   0  0  0  0  0  0
   19.6159   76.5936   84.1562 H   0  0  0  0  0  0
   22.5498   78.8623   81.9459 H   0  0  0  0  0  0
   20.4635   77.4946   79.5272 H   0  0  0  0  0  0
   21.8940   77.9539   80.4102 H   0  0  0  0  0  0
   22.0695   79.1125   87.3138 H   0  0  0  0  0  0
   23.3565   79.8681   86.4309 H   0  0  0  0  0  0
   20.6415   77.3367   86.2327 H   0  0  0  0  0  0
   23.5533   79.5773   84.0139 H   0  0  0  0  0  0
   30.1498   72.2138   87.8966 H   0  0  0  0  0  0
   30.7106   73.2360   89.1667 H   0  0  0  0  0  0
   32.4352   73.5512   87.7398 H   0  0  0  0  0  0
   31.4797   74.8930   87.2291 H   0  0  0  0  0  0
   30.0853   75.5588   85.5415 H   0  0  0  0  0  0
   30.3662   71.5467   84.0124 H   0  0  0  0  0  0
   33.3809   71.4481   84.7357 H   0  0  0  0  0  0
   32.7096   75.6616   85.3073 H   0  0  0  0  0  0
   28.4537   71.9789   82.5327 H   0  0  0  0  0  0
   35.5291   71.9490   83.6432 H   0  0  0  0  0  0
   34.8607   76.1408   84.2038 H   0  0  0  0  0  0
   28.1626   75.9740   84.0604 H   0  0  0  0  0  0
   36.2697   74.2854   83.3785 H   0  0  0  0  0  0
   27.3498   74.1930   82.5568 H   0  0  0  0  0  0
  1  3  1  0  0  0
  1  6  1  0  0  0
  1 13  2  0  0  0
  2  4  1  0  0  0
  2 14  2  0  0  0
  2 16  1  0  0  0
  3 10  1  0  0  0
  3 12  1  0  0  0
  4 11  1  0  0  0
  4  9  1  0  0  0
  5  7  1  0  0  0
  5  8  2  0  0  0
  5 21  1  0  0  0
  6 22  1  0  0  0
  6 38  1  0  0  0
  7 20  2  0  0  0
  7 19  1  0  0  0
  8 39  1  0  0  0
  9 10  1  0  0  0
  9 40  1  0  0  0
  9 41  1  0  0  0
 10 42  1  0  0  0
 10 43  1  0  0  0
 11 12  1  0  0  0
 11 44  1  0  0  0
 11 45  1  0  0  0
 12 46  1  0  0  0
 12 47  1  0  0  0
 15 27  1  0  0  0
 15 17  1  0  0  0
 15 18  1  0  0  0
 15 48  1  0  0  0
 16 26  1  0  0  0
 16 49  1  0  0  0
 17 30  2  0  0  0
 17 31  1  0  0  0
 18 28  2  0  0  0
 18 29  1  0  0  0
 19 24  2  0  0  0
 19 50  1  0  0  0
 20 25  1  0  0  0
 20 51  1  0  0  0
 21 52  1  0  0  0
 21 53  1  0  0  0
 22 23  1  0  0  0
 22 54  1  0  0  0
 22 55  1  0  0  0
 23 24  1  0  0  0
 23 25  2  0  0  0
 24 56  1  0  0  0
 25 57  1  0  0  0
 26 27  1  0  0  0
 26 58  1  0  0  0
 26 59  1  0  0  0
 27 60  1  0  0  0
 27 61  1  0  0  0
 28 35  1  0  0  0
 28 62  1  0  0  0
 29 32  2  0  0  0
 29 63  1  0  0  0
 30 33  1  0  0  0
 30 64  1  0  0  0
 31 34  2  0  0  0
 31 65  1  0  0  0
 32 37  1  0  0  0
 32 66  1  0  0  0
 33 36  2  0  0  0
 33 67  1  0  0  0
 34 36  1  0  0  0
 34 68  1  0  0  0
 35 37  2  0  0  0
 35 69  1  0  0  0
 36 70  1  0  0  0
 37 71  1  0  0  0
M  END
> <s_m_entry_id>
40550

> <s_m_entry_name>
dock_pv.6

> <s_m_Source_Path>
/home/csk/Desktop/cluster/DUD-E-result/tryb1

> <s_m_Source_File>
dock_pv.maegz

> <i_m_Source_File_Index>
6

> <chembl_id>
CHEMBL309580

> <chembl_pref_name>
None

> <i_lp_mmshare_version>
53161

> <r_lp_tautomer_probability>
1

> <s_lp_Force_Field>
OPLS_2005

> <r_lp_Energy>
63.134294

> <b_lp_Chiralities_Consistent>
1

> <s_lp_Variant>
CHEMBL2617_lig79-1

> <s_i_glide_gridfile>
glide-grid_2zec

> <i_i_glide_lignum>
104

> <i_i_glide_rotatable_bonds>
12

> <r_i_docking_score>
-7.53640082562926

> <r_i_glide_ligand_efficiency>
-0.203686508800791

> <r_i_glide_ligand_efficiency_sa>
-0.678728634694527

> <r_i_glide_ligand_efficiency_ln>
-1.63446866077635

> <r_i_glide_gscore>
-7.53640082562926

> <r_i_glide_lipo>
-3.50215034366499

> <r_i_glide_hbond>
-0.5272206625489

> <r_i_glide_metal>
0

> <r_i_glide_rewards>
-0.736247809356141

> <r_i_glide_evdw>
-51.2883186340332

> <r_i_glide_ecoul>
-7.09590578079224

> <r_i_glide_erotb>
0.902898712936352

> <r_i_glide_esite>
-0.0448789241750863

> <r_i_glide_emodel>
-81.3949918008301

> <r_i_glide_energy>
-58.3842244148254

> <r_i_glide_einternal>
7.72305631637573

> <i_i_glide_confnum>
7

> <i_i_glide_posenum>
394

> <r_i_glide_eff_state_penalty>
0

> <s_user_duplicate_titles>
CHEMBL2617_lig79,120982

> <i_f3d_flags>
0

> <s_m_subgroup_title>
dock_pv

> <s_m_subgroupid>
dock_pv

> <b_m_subgroup_collapsed>
1

$$$$
CHEMBL2617_lig85
                    3D
 Schrodinger Suite 2021-1.
 54 56  0  0  1  0            999 V2000
   26.0428   80.3855   84.6876 N   0  0  0  0  0  0
   27.6525   80.1172   82.4174 N   0  0  0  0  0  0
   26.8326   79.2460   84.5772 C   0  0  0  0  0  0
   26.8212   81.1936   82.5708 C   0  0  0  0  0  0
   27.6639   79.2157   83.3360 C   0  0  0  0  0  0
   26.0244   81.3466   83.6698 C   0  0  0  0  0  0
   25.2697   80.5076   85.9498 C   0  0  0  0  0  0
   23.8811   79.8403   85.9173 C   0  0  0  0  0  0
   23.3988   79.3442   84.7490 N   0  0  0  0  0  0
   26.8519   78.3385   85.4206 O   0  0  0  0  0  0
   28.5046   78.1152   83.2075 N   0  0  0  0  0  0
   26.8627   82.3525   81.2336 Cl  0  0  0  0  0  0
   23.2774   79.8129   86.9866 O   0  0  0  0  0  0
   22.1575   78.7220   84.4883 C   0  0  0  0  0  0
   21.9561   78.1875   83.2076 C   0  0  0  0  0  0
   25.0688   82.5288   83.8521 C   0  0  0  0  0  0
   20.7486   77.5504   82.8735 C   0  0  0  0  0  0
   20.9499   77.7863   80.4206 N   0  0  0  0  0  0
   29.3527   77.8090   82.0600 C   0  0  0  0  0  0
   30.0194   75.2997   82.5392 C   0  0  0  0  0  0
   19.9276   77.9878   85.1033 C   0  0  0  0  0  0
   21.1179   78.6245   85.4275 C   0  0  0  0  0  0
   20.4961   76.9367   81.5003 C   0  0  0  0  0  0
   30.4448   76.7610   82.3601 C   0  0  0  0  0  0
   19.7507   77.4350   83.8413 C   0  0  0  0  0  0
   31.0037   74.3114   82.4183 C   0  0  0  0  0  0
   28.6988   74.9207   82.8169 C   0  0  0  0  0  0
   30.6759   72.9655   82.5562 C   0  0  0  0  0  0
   28.3709   73.5744   82.9547 C   0  0  0  0  0  0
   29.3589   72.6024   82.8216 C   0  0  0  0  0  0
   25.1707   81.5520   86.2381 H   0  0  0  0  0  0
   25.8359   80.0790   86.7783 H   0  0  0  0  0  0
   24.0122   79.4084   83.9503 H   0  0  0  0  0  0
   28.4541   77.4087   83.9272 H   0  0  0  0  0  0
   22.7351   78.2586   82.4618 H   0  0  0  0  0  0
   25.0577   83.1958   82.9920 H   0  0  0  0  0  0
   24.0440   82.1860   83.9898 H   0  0  0  0  0  0
   25.3539   83.1316   84.7156 H   0  0  0  0  0  0
   21.9510   77.7337   80.2506 H   0  0  0  0  0  0
   20.4844   77.5812   79.5331 H   0  0  0  0  0  0
   28.7637   77.5413   81.1815 H   0  0  0  0  0  0
   29.8621   78.7354   81.7828 H   0  0  0  0  0  0
   19.1396   77.9523   85.8346 H   0  0  0  0  0  0
   21.1808   79.0428   86.4178 H   0  0  0  0  0  0
   19.4223   76.7939   81.3651 H   0  0  0  0  0  0
   20.9504   75.9520   81.4259 H   0  0  0  0  0  0
   31.1530   76.7919   81.5306 H   0  0  0  0  0  0
   31.0076   77.0649   83.2433 H   0  0  0  0  0  0
   18.8255   76.9295   83.6111 H   0  0  0  0  0  0
   32.0281   74.5812   82.2047 H   0  0  0  0  0  0
   27.9062   75.6484   82.9039 H   0  0  0  0  0  0
   31.4377   72.2062   82.4506 H   0  0  0  0  0  0
   27.3502   73.2881   83.1505 H   0  0  0  0  0  0
   29.1019   71.5574   82.9155 H   0  0  0  0  0  0
  1  3  1  0  0  0
  1  6  1  0  0  0
  1  7  1  0  0  0
  2  4  1  0  0  0
  2  5  2  0  0  0
  3  5  1  0  0  0
  3 10  2  0  0  0
  4  6  2  0  0  0
  4 12  1  0  0  0
  5 11  1  0  0  0
  6 16  1  0  0  0
  7  8  1  0  0  0
  7 31  1  0  0  0
  7 32  1  0  0  0
  8  9  1  0  0  0
  8 13  2  0  0  0
  9 14  1  0  0  0
  9 33  1  0  0  0
 11 19  1  0  0  0
 11 34  1  0  0  0
 14 15  2  0  0  0
 14 22  1  0  0  0
 15 17  1  0  0  0
 15 35  1  0  0  0
 16 36  1  0  0  0
 16 37  1  0  0  0
 16 38  1  0  0  0
 17 23  1  0  0  0
 17 25  2  0  0  0
 18 23  1  0  0  0
 18 39  1  0  0  0
 18 40  1  0  0  0
 19 24  1  0  0  0
 19 41  1  0  0  0
 19 42  1  0  0  0
 20 24  1  0  0  0
 20 26  2  0  0  0
 20 27  1  0  0  0
 21 22  2  0  0  0
 21 25  1  0  0  0
 21 43  1  0  0  0
 22 44  1  0  0  0
 23 45  1  0  0  0
 23 46  1  0  0  0
 24 47  1  0  0  0
 24 48  1  0  0  0
 25 49  1  0  0  0
 26 28  1  0  0  0
 26 50  1  0  0  0
 27 29  2  0  0  0
 27 51  1  0  0  0
 28 30  2  0  0  0
 28 52  1  0  0  0
 29 30  1  0  0  0
 29 53  1  0  0  0
 30 54  1  0  0  0
M  END
> <s_m_entry_id>
40551

> <s_m_entry_name>
dock_pv.7

> <s_m_Source_Path>
/home/csk/Desktop/cluster/DUD-E-result/tryb1

> <s_m_Source_File>
dock_pv.maegz

> <i_m_Source_File_Index>
7

> <chembl_id>
CHEMBL183942

> <chembl_pref_name>
None

> <i_lp_mmshare_version>
53161

> <r_lp_tautomer_probability>
1

> <s_lp_Force_Field>
OPLS_2005

> <r_lp_Energy>
29.799387

> <b_lp_Chiralities_Consistent>
1

> <s_lp_Variant>
CHEMBL2617_lig85-1

> <s_i_glide_gridfile>
glide-grid_2zec

> <i_i_glide_lignum>
110

> <i_i_glide_rotatable_bonds>
9

> <r_i_docking_score>
-7.50126139356672

> <r_i_glide_ligand_efficiency>
-0.250042046452224

> <r_i_glide_ligand_efficiency_sa>
-0.776938773710734

> <r_i_glide_ligand_efficiency_ln>
-1.70436832140752

> <r_i_glide_gscore>
-7.50126139356672

> <r_i_glide_lipo>
-3.85716651549728

> <r_i_glide_hbond>
-0.456

> <r_i_glide_metal>
0

> <r_i_glide_rewards>
-0.710421886739928

> <r_i_glide_evdw>
-43.8218650817871

> <r_i_glide_ecoul>
-7.01489782333374

> <r_i_glide_erotb>
0.765654936259902

> <r_i_glide_esite>
0

> <r_i_glide_emodel>
-69.9545918433063

> <r_i_glide_energy>
-50.8367629051208

> <r_i_glide_einternal>
8.35599231719971

> <i_i_glide_confnum>
35

> <i_i_glide_posenum>
45

> <r_i_glide_eff_state_penalty>
0

> <s_user_duplicate_titles>
CHEMBL2617_lig85

> <i_f3d_flags>
0

> <s_m_subgroup_title>
dock_pv

> <s_m_subgroupid>
dock_pv

> <b_m_subgroup_collapsed>
1

$$$$
CHEMBL2617_lig106
                    3D
 Schrodinger Suite 2021-1.
 66 69  0  0  1  0            999 V2000
   28.3502   76.4119   84.4272 C   0  0  0  0  0  0
   28.8608   76.5423   85.7128 C   0  0  0  0  0  0
   27.7702   77.4835   83.6369 C   0  0  0  0  0  0
   29.4138   75.3686   86.1651 N   0  0  0  0  0  0
   28.7068   75.0671   84.0368 C   0  0  0  0  0  0
   26.9234   78.3764   84.2336 N   0  0  0  0  0  0
   29.3579   74.4365   85.1456 C   0  0  0  0  0  0
   22.5782   78.4824   84.1835 C   0  0  0  0  0  0
   28.0693   77.5516   82.4423 O   0  0  0  0  0  0
   26.2434   78.1732   85.5310 C   0  0  0  0  0  0
   26.3566   79.4977   83.4505 C   0  0  0  0  0  0
   24.0578   78.8372   84.3869 C   0  0  0  0  0  0
   22.0756   77.9522   82.9848 C   0  0  0  0  0  0
   24.7821   77.7734   85.2405 C   0  0  0  0  0  0
   24.8792   79.1680   83.1121 C   0  0  0  0  0  0
   29.9533   75.1541   87.5062 C   0  0  0  0  0  0
   20.7161   77.6108   82.8615 C   0  0  0  0  0  0
   28.5201   74.3108   82.8665 C   0  0  0  0  0  0
   20.9511   77.1524   80.4119 N   0  0  0  0  0  0
   29.8212   73.1136   85.0887 C   0  0  0  0  0  0
   21.7010   78.6683   85.2584 C   0  0  0  0  0  0
   20.3584   78.3209   85.1499 C   0  0  0  0  0  0
   20.1039   77.0378   81.5810 C   0  0  0  0  0  0
   19.8720   77.7890   83.9601 C   0  0  0  0  0  0
   29.0195   74.2743   88.3682 C   0  0  0  0  0  0
   25.4205   74.6447   89.9761 C   0  0  0  0  0  0
   26.7421   73.9868   89.5286 C   0  0  0  0  0  0
   27.6170   74.8700   88.6150 C   0  0  0  0  0  0
   28.9744   72.9943   82.8142 C   0  0  0  0  0  0
   29.6165   72.4143   83.9005 C   0  0  0  0  0  0
   24.4185   74.8982   88.8405 C   0  0  0  0  0  0
   28.8729   77.4052   86.3645 H   0  0  0  0  0  0
   26.7277   77.4962   86.2271 H   0  0  0  0  0  0
   26.2686   79.1338   86.0477 H   0  0  0  0  0  0
   26.3957   80.3779   84.0944 H   0  0  0  0  0  0
   26.9686   79.7718   82.5893 H   0  0  0  0  0  0
   24.0223   79.7609   84.9693 H   0  0  0  0  0  0
   22.7406   77.7882   82.1503 H   0  0  0  0  0  0
   24.7581   76.7974   84.7513 H   0  0  0  0  0  0
   24.2855   77.6716   86.2060 H   0  0  0  0  0  0
   24.4554   80.0414   82.6151 H   0  0  0  0  0  0
   24.8679   78.3486   82.3955 H   0  0  0  0  0  0
   30.1059   76.1257   87.9787 H   0  0  0  0  0  0
   30.9379   74.6948   87.4072 H   0  0  0  0  0  0
   28.0145   74.7421   82.0190 H   0  0  0  0  0  0
   20.3934   77.1492   79.5582 H   0  0  0  0  0  0
   21.4412   78.0388   80.4026 H   0  0  0  0  0  0
   30.3168   72.6447   85.9258 H   0  0  0  0  0  0
   22.0610   79.0774   86.1911 H   0  0  0  0  0  0
   19.6909   78.4761   85.9841 H   0  0  0  0  0  0
   19.8541   75.9865   81.7341 H   0  0  0  0  0  0
   19.1740   77.5542   81.3535 H   0  0  0  0  0  0
   18.8278   77.5253   83.8945 H   0  0  0  0  0  0
   29.5051   74.1050   89.3306 H   0  0  0  0  0  0
   28.9265   73.2862   87.9151 H   0  0  0  0  0  0
   25.6350   75.5852   90.4856 H   0  0  0  0  0  0
   24.9450   74.0054   90.7211 H   0  0  0  0  0  0
   27.3116   73.7313   90.4238 H   0  0  0  0  0  0
   26.5328   73.0380   89.0331 H   0  0  0  0  0  0
   27.1092   75.0256   87.6621 H   0  0  0  0  0  0
   27.7279   75.8578   89.0654 H   0  0  0  0  0  0
   28.8312   72.4099   81.9154 H   0  0  0  0  0  0
   29.9606   71.3931   83.8183 H   0  0  0  0  0  0
   23.4969   75.3403   89.2209 H   0  0  0  0  0  0
   24.1496   73.9665   88.3452 H   0  0  0  0  0  0
   24.8204   75.5780   88.0884 H   0  0  0  0  0  0
  1  2  2  0  0  0
  1  3  1  0  0  0
  1  5  1  0  0  0
  2  4  1  0  0  0
  2 32  1  0  0  0
  3  6  1  0  0  0
  3  9  2  0  0  0
  4 16  1  0  0  0
  4  7  1  0  0  0
  5  7  2  0  0  0
  5 18  1  0  0  0
  6 10  1  0  0  0
  6 11  1  0  0  0
  7 20  1  0  0  0
  8 12  1  0  0  0
  8 13  2  0  0  0
  8 21  1  0  0  0
 10 14  1  0  0  0
 10 33  1  0  0  0
 10 34  1  0  0  0
 11 15  1  0  0  0
 11 35  1  0  0  0
 11 36  1  0  0  0
 12 15  1  0  0  0
 12 14  1  0  0  0
 12 37  1  0  0  0
 13 17  1  0  0  0
 13 38  1  0  0  0
 14 39  1  0  0  0
 14 40  1  0  0  0
 15 41  1  0  0  0
 15 42  1  0  0  0
 16 25  1  0  0  0
 16 43  1  0  0  0
 16 44  1  0  0  0
 17 23  1  0  0  0
 17 24  2  0  0  0
 18 29  2  0  0  0
 18 45  1  0  0  0
 19 23  1  0  0  0
 19 46  1  0  0  0
 19 47  1  0  0  0
 20 30  2  0  0  0
 20 48  1  0  0  0
 21 22  2  0  0  0
 21 49  1  0  0  0
 22 24  1  0  0  0
 22 50  1  0  0  0
 23 51  1  0  0  0
 23 52  1  0  0  0
 24 53  1  0  0  0
 25 28  1  0  0  0
 25 54  1  0  0  0
 25 55  1  0  0  0
 26 27  1  0  0  0
 26 31  1  0  0  0
 26 56  1  0  0  0
 26 57  1  0  0  0
 27 28  1  0  0  0
 27 58  1  0  0  0
 27 59  1  0  0  0
 28 60  1  0  0  0
 28 61  1  0  0  0
 29 30  1  0  0  0
 29 62  1  0  0  0
 30 63  1  0  0  0
 31 64  1  0  0  0
 31 65  1  0  0  0
 31 66  1  0  0  0
M  END
> <s_m_entry_id>
40552

> <s_m_entry_name>
dock_pv.8

> <s_m_Source_Path>
/home/csk/Desktop/cluster/DUD-E-result/tryb1

> <s_m_Source_File>
dock_pv.maegz

> <i_m_Source_File_Index>
8

> <chembl_id>
CHEMBL364661

> <chembl_pref_name>
None

> <i_lp_mmshare_version>
53161

> <r_lp_tautomer_probability>
1

> <s_lp_Force_Field>
OPLS_2005

> <r_lp_Energy>
40.318105

> <b_lp_Chiralities_Consistent>
1

> <s_lp_Variant>
CHEMBL2617_lig106-1

> <s_i_glide_gridfile>
glide-grid_2zec

> <i_i_glide_lignum>
133

> <i_i_glide_rotatable_bonds>
9

> <r_i_docking_score>
-7.32040650911103

> <r_i_glide_ligand_efficiency>
-0.236142145455195

> <r_i_glide_ligand_efficiency_sa>
-0.741812366098018

> <r_i_glide_ligand_efficiency_ln>
-1.6509760113214

> <r_i_glide_gscore>
-7.32040650911103

> <r_i_glide_lipo>
-4.21324442317261

> <r_i_glide_hbond>
-0.419600808757388

> <r_i_glide_metal>
0

> <r_i_glide_rewards>
-0.570234105500418

> <r_i_glide_evdw>
-45.4638938903809

> <r_i_glide_ecoul>
-4.24349212646484

> <r_i_glide_erotb>
0.793478401672937

> <r_i_glide_esite>
-0.00108705986478633

> <r_i_glide_emodel>
-66.0675368799762

> <r_i_glide_energy>
-49.7073860168457

> <r_i_glide_einternal>
6.19106960296631

> <i_i_glide_confnum>
26

> <i_i_glide_posenum>
162

> <r_i_glide_eff_state_penalty>
0

> <s_user_duplicate_titles>
CHEMBL2617_lig106,319311

> <i_f3d_flags>
0

> <s_m_subgroup_title>
dock_pv

> <s_m_subgroupid>
dock_pv

> <b_m_subgroup_collapsed>
1

$$$$
CHEMBL2617_lig112
                    3D
 Schrodinger Suite 2021-1.
 48 51  0  0  1  0            999 V2000
   28.3777   76.4963   84.4019 C   0  0  0  0  0  0
   27.7503   77.5413   83.6191 C   0  0  0  0  0  0
   28.9688   76.6816   85.6477 C   0  0  0  0  0  0
   29.5908   75.5356   86.0666 N   0  0  0  0  0  0
   28.7512   75.1513   84.0135 C   0  0  0  0  0  0
   29.4947   74.5732   85.0894 C   0  0  0  0  0  0
   26.9427   78.4547   84.2343 N   0  0  0  0  0  0
   22.5977   78.4789   84.2014 C   0  0  0  0  0  0
   27.9911   77.5764   82.4133 O   0  0  0  0  0  0
   30.0016   73.2706   85.0386 C   0  0  0  0  0  0
   26.2803   78.2465   85.5383 C   0  0  0  0  0  0
   26.3467   79.5564   83.4469 C   0  0  0  0  0  0
   24.0740   78.8504   84.3952 C   0  0  0  0  0  0
   22.0868   77.9601   83.0002 C   0  0  0  0  0  0
   24.8238   77.8125   85.2614 C   0  0  0  0  0  0
   24.8801   79.1830   83.1117 C   0  0  0  0  0  0
   30.7152   72.7515   86.0630 F   0  0  0  0  0  0
   20.7194   77.6574   82.8727 C   0  0  0  0  0  0
   28.5258   74.3601   82.8709 C   0  0  0  0  0  0
   20.9500   77.1520   80.4171 N   0  0  0  0  0  0
   21.7263   78.6680   85.2804 C   0  0  0  0  0  0
   29.0237   73.0582   82.8227 C   0  0  0  0  0  0
   20.3770   78.3491   85.1708 C   0  0  0  0  0  0
   29.7483   72.5290   83.8860 C   0  0  0  0  0  0
   20.0808   77.1527   81.5767 C   0  0  0  0  0  0
   19.8790   77.8441   83.9739 C   0  0  0  0  0  0
   29.0130   77.5615   86.2759 H   0  0  0  0  0  0
   30.0782   75.4640   86.9487 H   0  0  0  0  0  0
   26.7982   77.5881   86.2289 H   0  0  0  0  0  0
   26.2889   79.2110   86.0485 H   0  0  0  0  0  0
   26.3635   80.4419   84.0841 H   0  0  0  0  0  0
   26.9534   79.8423   82.5856 H   0  0  0  0  0  0
   24.0276   79.7807   84.9664 H   0  0  0  0  0  0
   22.7463   77.8027   82.1601 H   0  0  0  0  0  0
   24.8163   76.8292   84.7872 H   0  0  0  0  0  0
   24.3342   77.7149   86.2308 H   0  0  0  0  0  0
   24.4326   80.0382   82.6034 H   0  0  0  0  0  0
   24.8876   78.3518   82.4079 H   0  0  0  0  0  0
   27.9635   74.7518   82.0370 H   0  0  0  0  0  0
   20.3954   77.1493   79.5613 H   0  0  0  0  0  0
   21.4859   78.0093   80.3715 H   0  0  0  0  0  0
   22.0945   79.0675   86.2142 H   0  0  0  0  0  0
   28.8514   72.4467   81.9474 H   0  0  0  0  0  0
   19.7141   78.5119   86.0080 H   0  0  0  0  0  0
   30.1278   71.5200   83.8137 H   0  0  0  0  0  0
   19.6936   76.1438   81.7264 H   0  0  0  0  0  0
   19.2365   77.7935   81.3381 H   0  0  0  0  0  0
   18.8270   77.6139   83.9025 H   0  0  0  0  0  0
  1  2  1  0  0  0
  1  3  2  0  0  0
  1  5  1  0  0  0
  2  7  1  0  0  0
  2  9  2  0  0  0
  3  4  1  0  0  0
  3 27  1  0  0  0
  4  6  1  0  0  0
  4 28  1  0  0  0
  5  6  2  0  0  0
  5 19  1  0  0  0
  6 10  1  0  0  0
  7 11  1  0  0  0
  7 12  1  0  0  0
  8 13  1  0  0  0
  8 14  2  0  0  0
  8 21  1  0  0  0
 10 17  1  0  0  0
 10 24  2  0  0  0
 11 15  1  0  0  0
 11 29  1  0  0  0
 11 30  1  0  0  0
 12 16  1  0  0  0
 12 31  1  0  0  0
 12 32  1  0  0  0
 13 16  1  0  0  0
 13 15  1  0  0  0
 13 33  1  0  0  0
 14 18  1  0  0  0
 14 34  1  0  0  0
 15 35  1  0  0  0
 15 36  1  0  0  0
 16 37  1  0  0  0
 16 38  1  0  0  0
 18 25  1  0  0  0
 18 26  2  0  0  0
 19 22  2  0  0  0
 19 39  1  0  0  0
 20 25  1  0  0  0
 20 40  1  0  0  0
 20 41  1  0  0  0
 21 23  2  0  0  0
 21 42  1  0  0  0
 22 24  1  0  0  0
 22 43  1  0  0  0
 23 26  1  0  0  0
 23 44  1  0  0  0
 24 45  1  0  0  0
 25 46  1  0  0  0
 25 47  1  0  0  0
 26 48  1  0  0  0
M  END
> <s_m_entry_id>
40553

> <s_m_entry_name>
dock_pv.9

> <s_m_Source_Path>
/home/csk/Desktop/cluster/DUD-E-result/tryb1

> <s_m_Source_File>
dock_pv.maegz

> <i_m_Source_File_Index>
9

> <chembl_id>
CHEMBL189983

> <chembl_pref_name>
None

> <i_lp_mmshare_version>
53161

> <r_lp_tautomer_probability>
1

> <s_lp_Force_Field>
OPLS_2005

> <r_lp_Energy>
39.006541

> <b_lp_Chiralities_Consistent>
1

> <s_lp_Variant>
CHEMBL2617_lig112-1

> <s_i_glide_gridfile>
glide-grid_2zec

> <i_i_glide_lignum>
139

> <i_i_glide_rotatable_bonds>
4

> <r_i_docking_score>
-7.29370480723115

> <r_i_glide_ligand_efficiency>
-0.280527107970429

> <r_i_glide_ligand_efficiency_sa>
-0.831060453541527

> <r_i_glide_ligand_efficiency_ln>
-1.71290264138073

> <r_i_glide_gscore>
-7.29370480723115

> <r_i_glide_lipo>
-3.43451842310064

> <r_i_glide_hbond>
-0.507967001705959

> <r_i_glide_metal>
0

> <r_i_glide_rewards>
-1.2042718001579

> <r_i_glide_evdw>
-38.7574729919434

> <r_i_glide_ecoul>
-4.48266172409058

> <r_i_glide_erotb>
0.463325325944104

> <r_i_glide_esite>
0

> <r_i_glide_emodel>
-58.4102253790967

> <r_i_glide_energy>
-43.2401347160339

> <r_i_glide_einternal>
6.43031215667725

> <i_i_glide_confnum>
3

> <i_i_glide_posenum>
329

> <r_i_glide_eff_state_penalty>
0

> <s_user_duplicate_titles>
CHEMBL2617_lig112,318587

> <i_f3d_flags>
0

> <s_m_subgroup_title>
dock_pv

> <s_m_subgroupid>
dock_pv

> <b_m_subgroup_collapsed>
1

$$$$
CHEMBL2617_lig205
                    3D
 Schrodinger Suite 2021-1.
 54 56  0  0  1  0            999 V2000
   32.1256   72.3088   82.8185 C   0  0  0  0  0  0
   30.9557   71.5520   82.8172 C   0  0  0  0  0  0
   29.7207   72.1904   82.8492 C   0  0  0  0  0  0
   29.6607   73.5836   82.8824 C   0  0  0  0  0  0
   30.8384   74.3383   82.8520 C   0  0  0  0  0  0
   32.0744   73.6995   82.8238 C   0  0  0  0  0  0
   28.3128   74.2762   82.9695 C   0  0  0  0  0  0
   28.3455   75.2071   84.0509 O   0  0  0  0  0  0
   27.3297   75.3286   84.9166 C   0  0  0  0  0  0
   27.7375   76.1824   85.9379 N   0  0  0  0  0  0
   26.2465   74.7546   84.8119 O   0  0  0  0  0  0
   26.8832   76.7755   87.0029 C   0  0  2  0  0  0
   25.6201   75.9610   87.3642 C   0  0  0  0  0  0
   24.2782   76.5382   87.2152 C   0  0  0  0  0  0
   25.7494   74.8160   87.8115 O   0  0  0  0  0  0
   23.3498   76.3742   88.1348 N   0  0  0  0  0  0
   22.2857   77.1519   87.6815 O   0  0  0  0  0  0
   22.7170   77.6730   86.5117 C   0  0  0  0  0  0
   23.9124   77.2730   86.1776 N   0  0  0  0  0  0
   21.8228   78.6523   85.7826 C   0  0  0  0  0  0
   21.2720   78.1009   84.4786 C   0  0  0  0  0  0
   21.8458   78.4816   83.2618 C   0  0  0  0  0  0
   21.3153   78.0049   82.0677 C   0  0  0  0  0  0
   20.2155   77.1517   82.0892 C   0  0  0  0  0  0
   19.6555   76.7520   83.3007 C   0  0  0  0  0  0
   20.1818   77.2279   84.4973 C   0  0  0  0  0  0
   26.6497   78.2943   86.7641 C   0  0  0  0  0  0
   27.9285   79.1634   86.7496 C   0  0  0  0  0  0
   27.6233   80.6684   86.6224 C   0  0  0  0  0  0
   26.9334   81.1519   87.8061 N   0  0  0  0  0  0
   33.0796   71.8030   82.8160 H   0  0  0  0  0  0
   31.0095   70.4728   82.7998 H   0  0  0  0  0  0
   28.8159   71.5969   82.8529 H   0  0  0  0  0  0
   30.7951   75.4180   82.8669 H   0  0  0  0  0  0
   32.9870   74.2784   82.8075 H   0  0  0  0  0  0
   27.5248   73.5305   83.0872 H   0  0  0  0  0  0
   28.1201   74.7901   82.0276 H   0  0  0  0  0  0
   28.6519   76.5925   85.8284 H   0  0  0  0  0  0
   27.4978   76.7138   87.9014 H   0  0  0  0  0  0
   22.3696   79.5748   85.5837 H   0  0  0  0  0  0
   20.9833   78.9380   86.4175 H   0  0  0  0  0  0
   22.6927   79.1525   83.2343 H   0  0  0  0  0  0
   21.7494   78.3023   81.1266 H   0  0  0  0  0  0
   19.8066   76.7858   81.1571 H   0  0  0  0  0  0
   18.8211   76.0664   83.3066 H   0  0  0  0  0  0
   19.7498   76.9158   85.4351 H   0  0  0  0  0  0
   26.1453   78.4469   85.8087 H   0  0  0  0  0  0
   25.9848   78.6838   87.5386 H   0  0  0  0  0  0
   28.5184   78.9853   87.6493 H   0  0  0  0  0  0
   28.5571   78.8699   85.9082 H   0  0  0  0  0  0
   28.5436   81.2394   86.4854 H   0  0  0  0  0  0
   27.0018   80.8522   85.7437 H   0  0  0  0  0  0
   27.5943   81.3351   88.5492 H   0  0  0  0  0  0
   26.4559   82.0316   87.6173 H   0  0  0  0  0  0
  1  6  1  0  0  0
  1  2  2  0  0  0
  1 31  1  0  0  0
  2  3  1  0  0  0
  2 32  1  0  0  0
  3  4  2  0  0  0
  3 33  1  0  0  0
  4  5  1  0  0  0
  4  7  1  0  0  0
  5  6  2  0  0  0
  5 34  1  0  0  0
  6 35  1  0  0  0
  7  8  1  0  0  0
  7 36  1  0  0  0
  7 37  1  0  0  0
  8  9  1  0  0  0
  9 10  1  0  0  0
  9 11  2  0  0  0
 10 12  1  0  0  0
 10 38  1  0  0  0
 12 13  1  0  0  0
 12 27  1  0  0  0
 12 39  1  0  0  0
 13 14  1  0  0  0
 13 15  2  0  0  0
 14 16  2  0  0  0
 14 19  1  0  0  0
 16 17  1  0  0  0
 17 18  1  0  0  0
 18 19  2  0  0  0
 18 20  1  0  0  0
 20 21  1  0  0  0
 20 40  1  0  0  0
 20 41  1  0  0  0
 21 22  2  0  0  0
 21 26  1  0  0  0
 22 23  1  0  0  0
 22 42  1  0  0  0
 23 24  2  0  0  0
 23 43  1  0  0  0
 24 25  1  0  0  0
 24 44  1  0  0  0
 25 26  2  0  0  0
 25 45  1  0  0  0
 26 46  1  0  0  0
 27 28  1  0  0  0
 27 47  1  0  0  0
 27 48  1  0  0  0
 28 29  1  0  0  0
 28 49  1  0  0  0
 28 50  1  0  0  0
 29 30  1  0  0  0
 29 51  1  0  0  0
 29 52  1  0  0  0
 30 53  1  0  0  0
 30 54  1  0  0  0
M  END
> <s_m_entry_id>
40554

> <s_m_entry_name>
dock_pv.10

> <s_m_Source_Path>
/home/csk/Desktop/cluster/DUD-E-result/tryb1

> <s_m_Source_File>
dock_pv.maegz

> <i_m_Source_File_Index>
10

> <chembl_id>
CHEMBL214315

> <chembl_pref_name>
None

> <i_lp_mmshare_version>
53161

> <r_lp_tautomer_probability>
0.99990000499975

> <s_lp_Force_Field>
OPLS_2005

> <r_lp_Energy>
16.944023

> <b_lp_Chiralities_Consistent>
1

> <s_lp_Variant>
CHEMBL2617_lig205-1

> <s_i_glide_gridfile>
glide-grid_2zec

> <i_i_glide_lignum>
233

> <i_i_glide_rotatable_bonds>
12

> <r_i_docking_score>
-7.24470871912949

> <r_i_glide_ligand_efficiency>
-0.24149029063765

> <r_i_glide_ligand_efficiency_sa>
-0.750366480090835

> <r_i_glide_ligand_efficiency_ln>
-1.64607675841011

> <r_i_glide_gscore>
-7.24470871912949

> <r_i_glide_lipo>
-3.53844111038539

> <r_i_glide_hbond>
-0.488342085155376

> <r_i_glide_metal>
0

> <r_i_glide_rewards>
-0.911182308547413

> <r_i_glide_evdw>
-44.1989097595215

> <r_i_glide_ecoul>
-8.50110626220703

> <r_i_glide_erotb>
1.17971809817814

> <r_i_glide_esite>
-0.00134988591232154

> <r_i_glide_emodel>
-70.7448787841421

> <r_i_glide_energy>
-52.7000160217285

> <r_i_glide_einternal>
9.73418045043945

> <i_i_glide_confnum>
7

> <i_i_glide_posenum>
388

> <r_i_glide_eff_state_penalty>
0

> <s_user_duplicate_titles>
CHEMBL2617_lig205

> <i_f3d_flags>
0

> <s_m_subgroup_title>
dock_pv

> <s_m_subgroupid>
dock_pv

> <b_m_subgroup_collapsed>
1

$$$$
CHEMBL2617_lig193
                    3D
 Schrodinger Suite 2021-1.
 77 80  0  0  1  0            999 V2000
   23.4607   78.1481   83.0017 C   0  0  0  0  0  0
   21.9397   78.1176   83.2461 C   0  0  0  0  0  0
   21.2418   77.3629   82.1073 C   0  0  0  0  0  0
   19.7278   77.2922   82.2550 C   0  0  0  0  0  0
   19.3502   76.3520   83.2944 N   0  0  0  0  0  0
   24.3965   78.8425   84.0348 C   0  0  2  0  0  0
   27.1866   73.9883   89.6983 C   0  0  0  0  0  0
   25.9097   73.7961   90.2193 C   0  0  0  0  0  0
   24.8208   74.4222   89.6178 C   0  0  0  0  0  0
   25.0013   75.2456   88.5027 C   0  0  0  0  0  0
   26.2924   75.4387   87.9940 C   0  0  0  0  0  0
   27.3822   74.8081   88.5897 C   0  0  0  0  0  0
   23.7554   75.8737   87.8705 C   0  0  0  0  0  0
   23.9807   77.1061   87.1864 O   0  0  0  0  0  0
   24.3145   77.1526   85.8794 C   0  0  0  0  0  0
   24.1116   78.4436   85.4257 N   0  0  0  0  0  0
   24.7150   76.1949   85.2173 O   0  0  0  0  0  0
   24.1388   80.3416   84.0170 C   0  0  0  0  0  0
   25.1511   81.2831   83.5144 C   0  0  0  0  0  0
   23.0486   80.7520   84.4170 O   0  0  0  0  0  0
   24.9813   82.5892   83.6106 N   0  0  0  0  0  0
   26.1295   83.1259   83.0377 O   0  0  0  0  0  0
   26.8533   82.0527   82.6458 C   0  0  0  0  0  0
   26.2835   80.9098   82.9366 N   0  0  0  0  0  0
   28.2172   82.3202   82.0315 C   0  0  0  0  0  0
   28.7036   81.2381   81.0744 C   0  0  0  0  0  0
   28.5498   81.3986   79.6952 C   0  0  0  0  0  0
   28.9512   80.3897   78.8226 C   0  0  0  0  0  0
   29.5461   79.2291   79.3204 C   0  0  0  0  0  0
   29.7497   79.0691   80.7014 C   0  0  0  0  0  0
   29.3098   80.0765   81.5645 C   0  0  0  0  0  0
   30.3609   77.9814   81.2943 O   0  0  0  0  0  0
   30.8895   76.9184   80.4998 C   0  0  0  0  0  0
   32.0178   76.2205   81.2818 C   0  0  0  0  0  0
   31.6435   75.7297   82.6961 C   0  0  0  0  0  0
   30.6851   74.5481   82.7140 C   0  0  0  0  0  0
   31.1904   73.2461   82.6473 C   0  0  0  0  0  0
   30.3208   72.1606   82.7012 C   0  0  0  0  0  0
   28.9503   72.3813   82.8170 C   0  0  0  0  0  0
   28.4380   73.6772   82.8701 C   0  0  0  0  0  0
   29.3076   74.7635   82.8196 C   0  0  0  0  0  0
   23.6535   78.5717   82.0171 H   0  0  0  0  0  0
   23.7500   77.1128   82.9206 H   0  0  0  0  0  0
   21.7190   77.6392   84.2002 H   0  0  0  0  0  0
   21.5317   79.1260   83.2950 H   0  0  0  0  0  0
   21.4678   77.8640   81.1656 H   0  0  0  0  0  0
   21.6385   76.3542   82.0170 H   0  0  0  0  0  0
   19.3334   78.2829   82.4791 H   0  0  0  0  0  0
   19.2901   76.9646   81.3106 H   0  0  0  0  0  0
   18.3620   76.1489   83.2216 H   0  0  0  0  0  0
   19.8229   75.4665   83.1281 H   0  0  0  0  0  0
   25.4364   78.6086   83.7981 H   0  0  0  0  0  0
   28.0337   73.4988   90.1567 H   0  0  0  0  0  0
   25.7655   73.1640   91.0826 H   0  0  0  0  0  0
   23.8294   74.2615   90.0165 H   0  0  0  0  0  0
   26.4696   76.0682   87.1360 H   0  0  0  0  0  0
   28.3764   74.9546   88.1930 H   0  0  0  0  0  0
   23.2726   75.1520   87.2170 H   0  0  0  0  0  0
   23.0437   76.0893   88.6683 H   0  0  0  0  0  0
   23.6727   79.1141   86.0401 H   0  0  0  0  0  0
   28.1984   83.2766   81.5043 H   0  0  0  0  0  0
   28.9501   82.4448   82.8291 H   0  0  0  0  0  0
   28.0829   82.2898   79.2981 H   0  0  0  0  0  0
   28.8027   80.5072   77.7599 H   0  0  0  0  0  0
   29.8379   78.4684   78.6142 H   0  0  0  0  0  0
   29.4469   79.9503   82.6286 H   0  0  0  0  0  0
   30.0929   76.2182   80.2457 H   0  0  0  0  0  0
   31.3245   77.2738   79.5654 H   0  0  0  0  0  0
   32.4054   75.3879   80.6923 H   0  0  0  0  0  0
   32.8465   76.9237   81.3727 H   0  0  0  0  0  0
   32.5518   75.4376   83.2251 H   0  0  0  0  0  0
   31.2321   76.5479   83.2896 H   0  0  0  0  0  0
   32.2533   73.0739   82.5573 H   0  0  0  0  0  0
   30.7045   71.1520   82.6446 H   0  0  0  0  0  0
   28.2760   71.5389   82.8479 H   0  0  0  0  0  0
   27.3729   73.8418   82.9454 H   0  0  0  0  0  0
   28.9111   75.7680   82.8642 H   0  0  0  0  0  0
  1  6  1  0  0  0
  1  2  1  0  0  0
  1 42  1  0  0  0
  1 43  1  0  0  0
  2  3  1  0  0  0
  2 44  1  0  0  0
  2 45  1  0  0  0
  3  4  1  0  0  0
  3 46  1  0  0  0
  3 47  1  0  0  0
  4  5  1  0  0  0
  4 48  1  0  0  0
  4 49  1  0  0  0
  5 50  1  0  0  0
  5 51  1  0  0  0
  6 16  1  0  0  0
  6 18  1  0  0  0
  6 52  1  0  0  0
  7 12  1  0  0  0
  7  8  2  0  0  0
  7 53  1  0  0  0
  8  9  1  0  0  0
  8 54  1  0  0  0
  9 10  2  0  0  0
  9 55  1  0  0  0
 10 11  1  0  0  0
 10 13  1  0  0  0
 11 12  2  0  0  0
 11 56  1  0  0  0
 12 57  1  0  0  0
 13 14  1  0  0  0
 13 58  1  0  0  0
 13 59  1  0  0  0
 14 15  1  0  0  0
 15 16  1  0  0  0
 15 17  2  0  0  0
 16 60  1  0  0  0
 18 19  1  0  0  0
 18 20  2  0  0  0
 19 21  2  0  0  0
 19 24  1  0  0  0
 21 22  1  0  0  0
 22 23  1  0  0  0
 23 24  2  0  0  0
 23 25  1  0  0  0
 25 26  1  0  0  0
 25 61  1  0  0  0
 25 62  1  0  0  0
 26 27  2  0  0  0
 26 31  1  0  0  0
 27 28  1  0  0  0
 27 63  1  0  0  0
 28 29  2  0  0  0
 28 64  1  0  0  0
 29 30  1  0  0  0
 29 65  1  0  0  0
 30 31  2  0  0  0
 30 32  1  0  0  0
 31 66  1  0  0  0
 32 33  1  0  0  0
 33 34  1  0  0  0
 33 67  1  0  0  0
 33 68  1  0  0  0
 34 35  1  0  0  0
 34 69  1  0  0  0
 34 70  1  0  0  0
 35 36  1  0  0  0
 35 71  1  0  0  0
 35 72  1  0  0  0
 36 37  2  0  0  0
 36 41  1  0  0  0
 37 38  1  0  0  0
 37 73  1  0  0  0
 38 39  2  0  0  0
 38 74  1  0  0  0
 39 40  1  0  0  0
 39 75  1  0  0  0
 40 41  2  0  0  0
 40 76  1  0  0  0
 41 77  1  0  0  0
M  END
> <s_m_entry_id>
40555

> <s_m_entry_name>
dock_pv.11

> <s_m_Source_Path>
/home/csk/Desktop/cluster/DUD-E-result/tryb1

> <s_m_Source_File>
dock_pv.maegz

> <i_m_Source_File_Index>
11

> <chembl_id>
CHEMBL214222

> <chembl_pref_name>
None

> <i_lp_mmshare_version>
53161

> <r_lp_tautomer_probability>
0.99990000499975

> <s_lp_Force_Field>
OPLS_2005

> <r_lp_Energy>
26.500214

> <b_lp_Chiralities_Consistent>
1

> <s_lp_Variant>
CHEMBL2617_lig193-1

> <s_i_glide_gridfile>
glide-grid_2zec

> <i_i_glide_lignum>
221

> <i_i_glide_rotatable_bonds>
18

> <r_i_docking_score>
-7.23517580279258

> <r_i_glide_ligand_efficiency>
-0.176467702507136

> <r_i_glide_ligand_efficiency_sa>
-0.608498973402603

> <r_i_glide_ligand_efficiency_ln>
-1.53496662412364

> <r_i_glide_gscore>
-7.23517580279258

> <r_i_glide_lipo>
-3.18069564969402

> <r_i_glide_hbond>
-0.498976375773346

> <r_i_glide_metal>
0

> <r_i_glide_rewards>
-0.61631488906724

> <r_i_glide_evdw>
-52.8514556884766

> <r_i_glide_ecoul>
-8.17380523681641

> <r_i_glide_erotb>
0.929454681688318

> <r_i_glide_esite>
0

> <r_i_glide_emodel>
-82.5411554757422

> <r_i_glide_energy>
-61.025260925293

> <r_i_glide_einternal>
8.7977991104126

> <i_i_glide_confnum>
1

> <i_i_glide_posenum>
119

> <r_i_glide_eff_state_penalty>
0

> <s_user_duplicate_titles>
CHEMBL2617_lig193

> <i_f3d_flags>
0

> <s_m_subgroup_title>
dock_pv

> <s_m_subgroupid>
dock_pv

> <b_m_subgroup_collapsed>
1

$$$$
CHEMBL2617_lig111
                    3D
 Schrodinger Suite 2021-1.
 51 54  0  0  1  0            999 V2000
   28.3619   76.6839   84.4790 C   0  0  0  0  0  0
   27.7145   77.6644   83.6286 C   0  0  0  0  0  0
   28.9304   76.9505   85.7199 C   0  0  0  0  0  0
   29.5380   75.8348   86.2276 N   0  0  0  0  0  0
   28.7477   75.3194   84.1858 C   0  0  0  0  0  0
   29.4637   74.8066   85.3162 C   0  0  0  0  0  0
   26.9061   78.6139   84.1913 N   0  0  0  0  0  0
   22.5623   78.4922   84.1745 C   0  0  0  0  0  0
   27.9318   77.6136   82.4172 O   0  0  0  0  0  0
   26.2793   79.6484   83.3393 C   0  0  0  0  0  0
   26.2537   78.4898   85.5124 C   0  0  0  0  0  0
   24.0209   78.9416   84.3450 C   0  0  0  0  0  0
   29.9694   73.5000   85.3808 C   0  0  0  0  0  0
   22.0638   77.9543   82.9779 C   0  0  0  0  0  0
   24.8113   77.9927   85.2765 C   0  0  0  0  0  0
   24.8184   79.2218   83.0406 C   0  0  0  0  0  0
   20.7168   77.5651   82.8681 C   0  0  0  0  0  0
   28.5472   74.4576   83.0934 C   0  0  0  0  0  0
   20.9500   77.1524   80.4132 N   0  0  0  0  0  0
   21.6952   78.6220   85.2659 C   0  0  0  0  0  0
   29.0509   73.1609   83.1400 C   0  0  0  0  0  0
   20.3674   78.2162   85.1729 C   0  0  0  0  0  0
   29.7465   72.7012   84.2537 C   0  0  0  0  0  0
   20.1000   77.0249   81.5780 C   0  0  0  0  0  0
   30.7006   72.9105   86.5750 C   0  0  0  0  0  0
   19.8835   77.6872   83.9812 C   0  0  0  0  0  0
   28.9604   77.8685   86.2922 H   0  0  0  0  0  0
   30.0018   75.8243   87.1248 H   0  0  0  0  0  0
   26.2788   80.5734   83.9169 H   0  0  0  0  0  0
   26.8746   79.8906   82.4561 H   0  0  0  0  0  0
   26.7882   77.9049   86.2530 H   0  0  0  0  0  0
   26.2343   79.4892   85.9481 H   0  0  0  0  0  0
   23.9288   79.9029   84.8565 H   0  0  0  0  0  0
   22.7178   77.8414   82.1272 H   0  0  0  0  0  0
   24.8340   76.9777   84.8748 H   0  0  0  0  0  0
   24.3334   77.9502   86.2553 H   0  0  0  0  0  0
   24.3474   80.0333   82.4840 H   0  0  0  0  0  0
   24.8456   78.3519   82.3870 H   0  0  0  0  0  0
   28.0029   74.7928   82.2241 H   0  0  0  0  0  0
   20.3920   77.1366   79.5600 H   0  0  0  0  0  0
   21.4126   78.0515   80.4007 H   0  0  0  0  0  0
   22.0506   79.0395   86.1967 H   0  0  0  0  0  0
   28.9010   72.4986   82.2985 H   0  0  0  0  0  0
   19.7032   78.3302   86.0154 H   0  0  0  0  0  0
   30.1137   71.6848   84.2386 H   0  0  0  0  0  0
   19.8367   75.9735   81.7073 H   0  0  0  0  0  0
   19.1791   77.5620   81.3630 H   0  0  0  0  0  0
   29.9991   72.7506   87.3978 H   0  0  0  0  0  0
   31.1730   71.9524   86.3462 H   0  0  0  0  0  0
   31.4787   73.5950   86.9197 H   0  0  0  0  0  0
   18.8497   77.3844   83.9210 H   0  0  0  0  0  0
  1  2  1  0  0  0
  1  3  2  0  0  0
  1  5  1  0  0  0
  2  7  1  0  0  0
  2  9  2  0  0  0
  3  4  1  0  0  0
  3 27  1  0  0  0
  4  6  1  0  0  0
  4 28  1  0  0  0
  5  6  2  0  0  0
  5 18  1  0  0  0
  6 13  1  0  0  0
  7 10  1  0  0  0
  7 11  1  0  0  0
  8 12  1  0  0  0
  8 14  2  0  0  0
  8 20  1  0  0  0
 10 16  1  0  0  0
 10 29  1  0  0  0
 10 30  1  0  0  0
 11 15  1  0  0  0
 11 31  1  0  0  0
 11 32  1  0  0  0
 12 15  1  0  0  0
 12 16  1  0  0  0
 12 33  1  0  0  0
 13 23  2  0  0  0
 13 25  1  0  0  0
 14 17  1  0  0  0
 14 34  1  0  0  0
 15 35  1  0  0  0
 15 36  1  0  0  0
 16 37  1  0  0  0
 16 38  1  0  0  0
 17 24  1  0  0  0
 17 26  2  0  0  0
 18 21  2  0  0  0
 18 39  1  0  0  0
 19 24  1  0  0  0
 19 40  1  0  0  0
 19 41  1  0  0  0
 20 22  2  0  0  0
 20 42  1  0  0  0
 21 23  1  0  0  0
 21 43  1  0  0  0
 22 26  1  0  0  0
 22 44  1  0  0  0
 23 45  1  0  0  0
 24 46  1  0  0  0
 24 47  1  0  0  0
 25 48  1  0  0  0
 25 49  1  0  0  0
 25 50  1  0  0  0
 26 51  1  0  0  0
M  END
> <s_m_entry_id>
40556

> <s_m_entry_name>
dock_pv.12

> <s_m_Source_Path>
/home/csk/Desktop/cluster/DUD-E-result/tryb1

> <s_m_Source_File>
dock_pv.maegz

> <i_m_Source_File_Index>
12

> <chembl_id>
CHEMBL189101

> <chembl_pref_name>
None

> <i_lp_mmshare_version>
53161

> <r_lp_tautomer_probability>
1

> <s_lp_Force_Field>
OPLS_2005

> <r_lp_Energy>
37.036441

> <b_lp_Chiralities_Consistent>
1

> <s_lp_Variant>
CHEMBL2617_lig111-1

> <s_i_glide_gridfile>
glide-grid_2zec

> <i_i_glide_lignum>
138

> <i_i_glide_rotatable_bonds>
4

> <r_i_docking_score>
-7.18167665490206

> <r_i_glide_ligand_efficiency>
-0.276218332880848

> <r_i_glide_ligand_efficiency_sa>
-0.818295724292856

> <r_i_glide_ligand_efficiency_ln>
-1.6865931974006

> <r_i_glide_gscore>
-7.18167665490206

> <r_i_glide_lipo>
-3.55219493665827

> <r_i_glide_hbond>
-0.483004429334185

> <r_i_glide_metal>
0

> <r_i_glide_rewards>
-1.03976577540247

> <r_i_glide_evdw>
-38.893482208252

> <r_i_glide_ecoul>
-4.23199892044067

> <r_i_glide_erotb>
0.472762434971561

> <r_i_glide_esite>
0

> <r_i_glide_emodel>
-59.551511258002

> <r_i_glide_energy>
-43.1254811286926

> <r_i_glide_einternal>
4.35413837432861

> <i_i_glide_confnum>
10

> <i_i_glide_posenum>
199

> <r_i_glide_eff_state_penalty>
0

> <s_user_duplicate_titles>
CHEMBL2617_lig111

> <i_f3d_flags>
0

> <s_m_subgroup_title>
dock_pv

> <s_m_subgroupid>
dock_pv

> <b_m_subgroup_collapsed>
1

$$$$
CHEMBL2617_lig125
                    3D
 Schrodinger Suite 2021-1.
 54 57  0  0  1  0            999 V2000
   28.3546   76.4410   84.4058 C   0  0  0  0  0  0
   28.9127   76.5918   85.6696 C   0  0  0  0  0  0
   27.7567   77.5034   83.6183 C   0  0  0  0  0  0
   29.5013   75.4314   86.1109 N   0  0  0  0  0  0
   28.7069   75.0935   84.0191 C   0  0  0  0  0  0
   26.9396   78.4144   84.2262 N   0  0  0  0  0  0
   29.3973   74.4794   85.1140 C   0  0  0  0  0  0
   22.5978   78.4835   84.1934 C   0  0  0  0  0  0
   28.0242   77.5523   82.4169 O   0  0  0  0  0  0
   26.2730   78.2157   85.5298 C   0  0  0  0  0  0
   26.3610   79.5259   83.4396 C   0  0  0  0  0  0
   24.0759   78.8466   84.3880 C   0  0  0  0  0  0
   22.0842   77.9713   82.9910 C   0  0  0  0  0  0
   24.8137   77.7979   85.2506 C   0  0  0  0  0  0
   24.8873   79.1765   83.1064 C   0  0  0  0  0  0
   30.1089   75.2457   87.4243 C   0  0  0  0  0  0
   20.7182   77.6607   82.8677 C   0  0  0  0  0  0
   28.4921   74.3246   82.8616 C   0  0  0  0  0  0
   20.9499   77.1516   80.4123 N   0  0  0  0  0  0
   29.8544   73.1540   85.0641 C   0  0  0  0  0  0
   21.7300   78.6618   85.2772 C   0  0  0  0  0  0
   20.3819   78.3364   85.1722 C   0  0  0  0  0  0
   20.0801   77.1537   81.5723 C   0  0  0  0  0  0
   19.8813   77.8366   83.9739 C   0  0  0  0  0  0
   29.1708   74.4537   88.3501 C   0  0  0  0  0  0
   28.9428   73.0065   82.8169 C   0  0  0  0  0  0
   29.6113   72.4381   83.8935 C   0  0  0  0  0  0
   28.9464   77.4646   86.3071 H   0  0  0  0  0  0
   26.7769   77.5535   86.2268 H   0  0  0  0  0  0
   26.2915   79.1812   86.0376 H   0  0  0  0  0  0
   26.3924   80.4103   84.0777 H   0  0  0  0  0  0
   26.9698   79.8023   82.5769 H   0  0  0  0  0  0
   24.0356   79.7748   84.9629 H   0  0  0  0  0  0
   22.7412   77.8194   82.1481 H   0  0  0  0  0  0
   24.7973   76.8161   84.7733 H   0  0  0  0  0  0
   24.3229   77.7013   86.2196 H   0  0  0  0  0  0
   24.4519   80.0409   82.6036 H   0  0  0  0  0  0
   24.8825   78.3507   82.3968 H   0  0  0  0  0  0
   31.0598   74.7265   87.2939 H   0  0  0  0  0  0
   30.3421   76.2224   87.8513 H   0  0  0  0  0  0
   27.9695   74.7468   82.0173 H   0  0  0  0  0  0
   20.3930   77.1443   79.5582 H   0  0  0  0  0  0
   21.4787   78.0128   80.3630 H   0  0  0  0  0  0
   30.3775   72.6976   85.8914 H   0  0  0  0  0  0
   22.1012   79.0544   86.2126 H   0  0  0  0  0  0
   19.7241   78.4873   86.0161 H   0  0  0  0  0  0
   19.6964   76.1435   81.7235 H   0  0  0  0  0  0
   19.2332   77.7917   81.3334 H   0  0  0  0  0  0
   18.8307   77.5991   83.9056 H   0  0  0  0  0  0
   29.6211   74.3191   89.3338 H   0  0  0  0  0  0
   28.2212   74.9708   88.4910 H   0  0  0  0  0  0
   28.9561   73.4612   87.9520 H   0  0  0  0  0  0
   28.7747   72.4112   81.9298 H   0  0  0  0  0  0
   29.9502   71.4145   83.8147 H   0  0  0  0  0  0
  1  2  2  0  0  0
  1  3  1  0  0  0
  1  5  1  0  0  0
  2  4  1  0  0  0
  2 28  1  0  0  0
  3  6  1  0  0  0
  3  9  2  0  0  0
  4 16  1  0  0  0
  4  7  1  0  0  0
  5  7  2  0  0  0
  5 18  1  0  0  0
  6 10  1  0  0  0
  6 11  1  0  0  0
  7 20  1  0  0  0
  8 12  1  0  0  0
  8 13  2  0  0  0
  8 21  1  0  0  0
 10 14  1  0  0  0
 10 29  1  0  0  0
 10 30  1  0  0  0
 11 15  1  0  0  0
 11 31  1  0  0  0
 11 32  1  0  0  0
 12 15  1  0  0  0
 12 14  1  0  0  0
 12 33  1  0  0  0
 13 17  1  0  0  0
 13 34  1  0  0  0
 14 35  1  0  0  0
 14 36  1  0  0  0
 15 37  1  0  0  0
 15 38  1  0  0  0
 16 25  1  0  0  0
 16 39  1  0  0  0
 16 40  1  0  0  0
 17 23  1  0  0  0
 17 24  2  0  0  0
 18 26  2  0  0  0
 18 41  1  0  0  0
 19 23  1  0  0  0
 19 42  1  0  0  0
 19 43  1  0  0  0
 20 27  2  0  0  0
 20 44  1  0  0  0
 21 22  2  0  0  0
 21 45  1  0  0  0
 22 24  1  0  0  0
 22 46  1  0  0  0
 23 47  1  0  0  0
 23 48  1  0  0  0
 24 49  1  0  0  0
 25 50  1  0  0  0
 25 51  1  0  0  0
 25 52  1  0  0  0
 26 27  1  0  0  0
 26 53  1  0  0  0
 27 54  1  0  0  0
M  END
> <s_m_entry_id>
40557

> <s_m_entry_name>
dock_pv.13

> <s_m_Source_Path>
/home/csk/Desktop/cluster/DUD-E-result/tryb1

> <s_m_Source_File>
dock_pv.maegz

> <i_m_Source_File_Index>
13

> <chembl_id>
CHEMBL372028

> <chembl_pref_name>
None

> <i_lp_mmshare_version>
53161

> <r_lp_tautomer_probability>
1

> <s_lp_Force_Field>
OPLS_2005

> <r_lp_Energy>
40.356952

> <b_lp_Chiralities_Consistent>
1

> <s_lp_Variant>
CHEMBL2617_lig125-1

> <s_i_glide_gridfile>
glide-grid_2zec

> <i_i_glide_lignum>
152

> <i_i_glide_rotatable_bonds>
5

> <r_i_docking_score>
-7.16259674139713

> <r_i_glide_ligand_efficiency>
-0.265281360792486

> <r_i_glide_ligand_efficiency_sa>
-0.795844081503134

> <r_i_glide_ligand_efficiency_ln>
-1.66733443676115

> <r_i_glide_gscore>
-7.16259674139713

> <r_i_glide_lipo>
-3.52882334546107

> <r_i_glide_hbond>
-0.48512136082206

> <r_i_glide_metal>
0

> <r_i_glide_rewards>
-0.944840020029376

> <r_i_glide_evdw>
-39.5176200866699

> <r_i_glide_ecoul>
-4.45188760757446

> <r_i_glide_erotb>
0.440605814807918

> <r_i_glide_esite>
-0.000753684422867026

> <r_i_glide_emodel>
-58.0362835980422

> <r_i_glide_energy>
-43.9695076942444

> <r_i_glide_einternal>
5.62520790100098

> <i_i_glide_confnum>
12

> <i_i_glide_posenum>
297

> <r_i_glide_eff_state_penalty>
0

> <s_user_duplicate_titles>
CHEMBL2617_lig125,319507

> <i_f3d_flags>
0

> <s_m_subgroup_title>
dock_pv

> <s_m_subgroupid>
dock_pv

> <b_m_subgroup_collapsed>
1

$$$$
CHEMBL2617_lig120
                    3D
 Schrodinger Suite 2021-1.
 57 60  0  0  1  0            999 V2000
   28.3359   76.4375   84.4109 C   0  0  0  0  0  0
   29.4356   75.4188   86.1492 N   0  0  0  0  0  0
   28.8811   76.5861   85.6785 C   0  0  0  0  0  0
   27.7509   77.5025   83.6172 C   0  0  0  0  0  0
   28.6916   75.0906   84.0299 C   0  0  0  0  0  0
   29.3658   74.4723   85.1361 C   0  0  0  0  0  0
   26.9241   78.4115   84.2163 N   0  0  0  0  0  0
   22.5802   78.4682   84.1547 C   0  0  0  0  0  0
   28.0294   77.5528   82.4165 O   0  0  0  0  0  0
   26.3491   79.5227   83.4253 C   0  0  0  0  0  0
   26.2474   78.2139   85.5148 C   0  0  0  0  0  0
   30.0318   75.2739   87.4851 C   0  0  0  0  0  0
   24.0556   78.8392   84.3588 C   0  0  0  0  0  0
   22.0767   77.9526   82.9491 C   0  0  0  0  0  0
   24.7911   77.7926   85.2260 C   0  0  0  0  0  0
   24.8763   79.1738   83.0840 C   0  0  0  0  0  0
   20.7148   77.6240   82.8216 C   0  0  0  0  0  0
   28.4915   74.3276   82.8657 C   0  0  0  0  0  0
   29.8309   73.1487   85.0738 C   0  0  0  0  0  0
   20.9501   77.1517   80.3656 N   0  0  0  0  0  0
   21.7046   78.6397   85.2331 C   0  0  0  0  0  0
   20.3609   78.2977   85.1220 C   0  0  0  0  0  0
   20.0876   77.1006   81.5288 C   0  0  0  0  0  0
   19.8720   77.7886   83.9239 C   0  0  0  0  0  0
   31.5513   75.0365   87.3871 C   0  0  0  0  0  0
   29.2958   74.1906   88.3001 C   0  0  0  0  0  0
   29.6067   72.4410   83.8952 C   0  0  0  0  0  0
   28.9462   73.0121   82.8170 C   0  0  0  0  0  0
   28.9139   77.4653   86.3076 H   0  0  0  0  0  0
   26.3774   80.4072   84.0636 H   0  0  0  0  0  0
   26.9626   79.7972   82.5649 H   0  0  0  0  0  0
   26.7480   77.5556   86.2179 H   0  0  0  0  0  0
   26.2602   79.1803   86.0209 H   0  0  0  0  0  0
   29.8863   76.2197   88.0114 H   0  0  0  0  0  0
   24.0066   79.7673   84.9336 H   0  0  0  0  0  0
   22.7391   77.8061   82.1099 H   0  0  0  0  0  0
   24.7798   76.8101   84.7492 H   0  0  0  0  0  0
   24.2948   77.6964   86.1920 H   0  0  0  0  0  0
   24.4434   80.0400   82.5825 H   0  0  0  0  0  0
   24.8753   78.3518   82.3711 H   0  0  0  0  0  0
   27.9772   74.7507   82.0168 H   0  0  0  0  0  0
   30.3438   72.6768   85.8967 H   0  0  0  0  0  0
   20.3935   77.1513   79.5103 H   0  0  0  0  0  0
   21.4851   78.0110   80.3380 H   0  0  0  0  0  0
   22.0664   79.0374   86.1705 H   0  0  0  0  0  0
   19.6952   78.4416   85.9595 H   0  0  0  0  0  0
   19.7592   76.0700   81.6741 H   0  0  0  0  0  0
   19.2036   77.6895   81.2994 H   0  0  0  0  0  0
   18.8263   77.5322   83.8528 H   0  0  0  0  0  0
   32.0082   75.0318   88.3768 H   0  0  0  0  0  0
   31.7951   74.0852   86.9165 H   0  0  0  0  0  0
   32.0377   75.8238   86.8092 H   0  0  0  0  0  0
   29.6793   74.1466   89.3199 H   0  0  0  0  0  0
   28.2274   74.4025   88.3656 H   0  0  0  0  0  0
   29.4063   73.1935   87.8745 H   0  0  0  0  0  0
   29.9522   71.4199   83.8142 H   0  0  0  0  0  0
   28.7896   72.4220   81.9248 H   0  0  0  0  0  0
  1  3  2  0  0  0
  1  4  1  0  0  0
  1  5  1  0  0  0
  2  3  1  0  0  0
  2 12  1  0  0  0
  2  6  1  0  0  0
  3 29  1  0  0  0
  4  7  1  0  0  0
  4  9  2  0  0  0
  5  6  2  0  0  0
  5 18  1  0  0  0
  6 19  1  0  0  0
  7 10  1  0  0  0
  7 11  1  0  0  0
  8 13  1  0  0  0
  8 14  2  0  0  0
  8 21  1  0  0  0
 10 16  1  0  0  0
 10 30  1  0  0  0
 10 31  1  0  0  0
 11 15  1  0  0  0
 11 32  1  0  0  0
 11 33  1  0  0  0
 12 25  1  0  0  0
 12 26  1  0  0  0
 12 34  1  0  0  0
 13 15  1  0  0  0
 13 16  1  0  0  0
 13 35  1  0  0  0
 14 17  1  0  0  0
 14 36  1  0  0  0
 15 37  1  0  0  0
 15 38  1  0  0  0
 16 39  1  0  0  0
 16 40  1  0  0  0
 17 23  1  0  0  0
 17 24  2  0  0  0
 18 28  2  0  0  0
 18 41  1  0  0  0
 19 27  2  0  0  0
 19 42  1  0  0  0
 20 23  1  0  0  0
 20 43  1  0  0  0
 20 44  1  0  0  0
 21 22  2  0  0  0
 21 45  1  0  0  0
 22 24  1  0  0  0
 22 46  1  0  0  0
 23 47  1  0  0  0
 23 48  1  0  0  0
 24 49  1  0  0  0
 25 50  1  0  0  0
 25 51  1  0  0  0
 25 52  1  0  0  0
 26 53  1  0  0  0
 26 54  1  0  0  0
 26 55  1  0  0  0
 27 28  1  0  0  0
 27 56  1  0  0  0
 28 57  1  0  0  0
M  END
> <s_m_entry_id>
40558

> <s_m_entry_name>
dock_pv.14

> <s_m_Source_Path>
/home/csk/Desktop/cluster/DUD-E-result/tryb1

> <s_m_Source_File>
dock_pv.maegz

> <i_m_Source_File_Index>
14

> <chembl_id>
CHEMBL190135

> <chembl_pref_name>
None

> <i_lp_mmshare_version>
53161

> <r_lp_tautomer_probability>
1

> <s_lp_Force_Field>
OPLS_2005

> <r_lp_Energy>
43.400042

> <b_lp_Chiralities_Consistent>
1

> <s_lp_Variant>
CHEMBL2617_lig120-1

> <s_i_glide_gridfile>
glide-grid_2zec

> <i_i_glide_lignum>
147

> <i_i_glide_rotatable_bonds>
5

> <r_i_docking_score>
-7.15275856641535

> <r_i_glide_ligand_efficiency>
-0.255455663086263

> <r_i_glide_ligand_efficiency_sa>
-0.775713848469317

> <r_i_glide_ligand_efficiency_ln>
-1.65106669124586

> <r_i_glide_gscore>
-7.15275856641535

> <r_i_glide_lipo>
-3.57080724605452

> <r_i_glide_hbond>
-0.502450616207546

> <r_i_glide_metal>
0

> <r_i_glide_rewards>
-0.850888048064487

> <r_i_glide_evdw>
-39.9194984436035

> <r_i_glide_ecoul>
-4.28896474838257

> <r_i_glide_erotb>
0.411635951223198

> <r_i_glide_esite>
-0.000928972874435996

> <r_i_glide_emodel>
-58.6439931118878

> <r_i_glide_energy>
-44.2084631919861

> <r_i_glide_einternal>
5.84242677688599

> <i_i_glide_confnum>
6

> <i_i_glide_posenum>
365

> <r_i_glide_eff_state_penalty>
0

> <s_user_duplicate_titles>
CHEMBL2617_lig120,319286

> <i_f3d_flags>
0

> <s_m_subgroup_title>
dock_pv

> <s_m_subgroupid>
dock_pv

> <b_m_subgroup_collapsed>
1

$$$$
CHEMBL2617_lig113
                    3D
 Schrodinger Suite 2021-1.
 48 51  0  0  1  0            999 V2000
   28.3521   76.4663   84.4014 C   0  0  0  0  0  0
   27.7494   77.5262   83.6178 C   0  0  0  0  0  0
   28.9415   76.6298   85.6509 C   0  0  0  0  0  0
   26.9303   78.4343   84.2296 N   0  0  0  0  0  0
   28.6928   75.1138   84.0125 C   0  0  0  0  0  0
   29.5284   75.4645   86.0707 N   0  0  0  0  0  0
   29.4101   74.5078   85.0915 C   0  0  0  0  0  0
   22.5868   78.4875   84.1905 C   0  0  0  0  0  0
   28.0122   77.5744   82.4165 O   0  0  0  0  0  0
   26.2665   78.2289   85.5327 C   0  0  0  0  0  0
   26.3439   79.5429   83.4446 C   0  0  0  0  0  0
   24.0637   78.8546   84.3888 C   0  0  0  0  0  0
   22.0816   77.9525   82.9943 C   0  0  0  0  0  0
   24.8053   77.8098   85.2552 C   0  0  0  0  0  0
   24.8743   79.1818   83.1083 C   0  0  0  0  0  0
   20.7178   77.6309   82.8684 C   0  0  0  0  0  0
   20.9502   77.1523   80.4171 N   0  0  0  0  0  0
   28.4510   74.3371   82.8651 C   0  0  0  0  0  0
   21.7108   78.6842   85.2648 C   0  0  0  0  0  0
   20.3648   78.3514   85.1560 C   0  0  0  0  0  0
   20.0946   77.0803   81.5839 C   0  0  0  0  0  0
   29.8771   73.1879   85.0435 C   0  0  0  0  0  0
   19.8741   77.8221   83.9661 C   0  0  0  0  0  0
   28.9091   73.0214   82.8166 C   0  0  0  0  0  0
   29.6098   72.4640   83.8819 C   0  0  0  0  0  0
   29.0040   77.5060   86.2819 H   0  0  0  0  0  0
   30.0055   75.3787   86.9577 H   0  0  0  0  0  0
   26.7780   77.5605   86.2186 H   0  0  0  0  0  0
   26.2865   79.1920   86.0464 H   0  0  0  0  0  0
   26.3659   80.4263   84.0851 H   0  0  0  0  0  0
   26.9524   79.8264   82.5841 H   0  0  0  0  0  0
   24.0215   79.7838   84.9625 H   0  0  0  0  0  0
   22.7451   77.7850   82.1583 H   0  0  0  0  0  0
   24.7892   76.8280   84.7769 H   0  0  0  0  0  0
   24.3133   77.7132   86.2241 H   0  0  0  0  0  0
   24.4366   80.0415   82.6004 H   0  0  0  0  0  0
   24.8764   78.3518   82.4033 H   0  0  0  0  0  0
   20.3935   77.1009   79.5650 H   0  0  0  0  0  0
   21.4183   78.0483   80.3678 H   0  0  0  0  0  0
   27.9062   74.7520   82.0309 H   0  0  0  0  0  0
   22.0750   79.0943   86.1955 H   0  0  0  0  0  0
   19.6974   78.5142   85.9903 H   0  0  0  0  0  0
   19.7965   76.0419   81.7379 H   0  0  0  0  0  0
   19.1923   77.6421   81.3520 H   0  0  0  0  0  0
   30.4208   72.7440   85.8651 H   0  0  0  0  0  0
   18.8270   77.5719   83.8977 H   0  0  0  0  0  0
   28.7206   72.4198   81.9381 H   0  0  0  0  0  0
   29.9519   71.4420   83.7990 H   0  0  0  0  0  0
  1  2  1  0  0  0
  1  3  2  0  0  0
  1  5  1  0  0  0
  2  4  1  0  0  0
  2  9  2  0  0  0
  3  6  1  0  0  0
  3 26  1  0  0  0
  4 10  1  0  0  0
  4 11  1  0  0  0
  5  7  2  0  0  0
  5 18  1  0  0  0
  6  7  1  0  0  0
  6 27  1  0  0  0
  7 22  1  0  0  0
  8 12  1  0  0  0
  8 13  2  0  0  0
  8 19  1  0  0  0
 10 14  1  0  0  0
 10 28  1  0  0  0
 10 29  1  0  0  0
 11 15  1  0  0  0
 11 30  1  0  0  0
 11 31  1  0  0  0
 12 15  1  0  0  0
 12 14  1  0  0  0
 12 32  1  0  0  0
 13 16  1  0  0  0
 13 33  1  0  0  0
 14 34  1  0  0  0
 14 35  1  0  0  0
 15 36  1  0  0  0
 15 37  1  0  0  0
 16 21  1  0  0  0
 16 23  2  0  0  0
 17 21  1  0  0  0
 17 38  1  0  0  0
 17 39  1  0  0  0
 18 24  2  0  0  0
 18 40  1  0  0  0
 19 20  2  0  0  0
 19 41  1  0  0  0
 20 23  1  0  0  0
 20 42  1  0  0  0
 21 43  1  0  0  0
 21 44  1  0  0  0
 22 25  2  0  0  0
 22 45  1  0  0  0
 23 46  1  0  0  0
 24 25  1  0  0  0
 24 47  1  0  0  0
 25 48  1  0  0  0
M  END
> <s_m_entry_id>
40559

> <s_m_entry_name>
dock_pv.15

> <s_m_Source_Path>
/home/csk/Desktop/cluster/DUD-E-result/tryb1

> <s_m_Source_File>
dock_pv.maegz

> <i_m_Source_File_Index>
15

> <chembl_id>
CHEMBL436537

> <chembl_pref_name>
None

> <i_lp_mmshare_version>
53161

> <r_lp_tautomer_probability>
1

> <s_lp_Force_Field>
OPLS_2005

> <r_lp_Energy>
37.858614

> <b_lp_Chiralities_Consistent>
1

> <s_lp_Variant>
CHEMBL2617_lig113-1

> <s_i_glide_gridfile>
glide-grid_2zec

> <i_i_glide_lignum>
140

> <i_i_glide_rotatable_bonds>
4

> <r_i_docking_score>
-7.14505848819447

> <r_i_glide_ligand_efficiency>
-0.285802339527779

> <r_i_glide_ligand_efficiency_sa>
-0.835691109505299

> <r_i_glide_ligand_efficiency_ln>
-1.69359298182655

> <r_i_glide_gscore>
-7.14505848819447

> <r_i_glide_lipo>
-3.54226624173551

> <r_i_glide_hbond>
-0.445361423835051

> <r_i_glide_metal>
0

> <r_i_glide_rewards>
-1.12259491940898

> <r_i_glide_evdw>
-38.603702545166

> <r_i_glide_ecoul>
-4.0873384475708

> <r_i_glide_erotb>
0.508593759632097

> <r_i_glide_esite>
-0.000143768453101713

> <r_i_glide_emodel>
-57.4290539275413

> <r_i_glide_energy>
-42.6910409927368

> <r_i_glide_einternal>
6.21194171905518

> <i_i_glide_confnum>
3

> <i_i_glide_posenum>
148

> <r_i_glide_eff_state_penalty>
0

> <s_user_duplicate_titles>
CHEMBL2617_lig113,319206

> <i_f3d_flags>
0

> <s_m_subgroup_title>
dock_pv

> <s_m_subgroupid>
dock_pv

> <b_m_subgroup_collapsed>
1

$$$$
CHEMBL2617_lig123
                    3D
 Schrodinger Suite 2021-1.
 51 54  0  0  1  0            999 V2000
   28.3453   76.4453   84.4073 C   0  0  0  0  0  0
   28.9040   76.5969   85.6706 C   0  0  0  0  0  0
   27.7505   77.5081   83.6182 C   0  0  0  0  0  0
   29.4583   75.4257   86.1252 N   0  0  0  0  0  0
   28.6911   75.0952   84.0231 C   0  0  0  0  0  0
   26.9358   78.4237   84.2235 N   0  0  0  0  0  0
   29.3779   74.4807   85.1207 C   0  0  0  0  0  0
   22.5919   78.4901   84.1868 C   0  0  0  0  0  0
   28.0166   77.5523   82.4163 O   0  0  0  0  0  0
   26.2677   78.2320   85.5272 C   0  0  0  0  0  0
   26.3568   79.5319   83.4325 C   0  0  0  0  0  0
   24.0692   78.8574   84.3815 C   0  0  0  0  0  0
   22.0860   77.9520   82.9925 C   0  0  0  0  0  0
   24.8070   77.8139   85.2506 C   0  0  0  0  0  0
   24.8832   79.1808   83.0997 C   0  0  0  0  0  0
   30.1261   75.2569   87.4057 C   0  0  0  0  0  0
   20.7245   77.6204   82.8713 C   0  0  0  0  0  0
   28.4792   74.3266   82.8644 C   0  0  0  0  0  0
   20.9500   77.1520   80.4170 N   0  0  0  0  0  0
   29.8473   73.1599   85.0674 C   0  0  0  0  0  0
   21.7177   78.6819   85.2632 C   0  0  0  0  0  0
   20.3735   78.3391   85.1592 C   0  0  0  0  0  0
   20.1036   77.0605   81.5895 C   0  0  0  0  0  0
   19.8825   77.8070   83.9709 C   0  0  0  0  0  0
   28.9388   73.0112   82.8174 C   0  0  0  0  0  0
   29.6120   72.4460   83.8936 C   0  0  0  0  0  0
   28.9554   77.4742   86.3005 H   0  0  0  0  0  0
   26.7727   77.5730   86.2265 H   0  0  0  0  0  0
   26.2859   79.1996   86.0309 H   0  0  0  0  0  0
   26.3887   80.4187   84.0670 H   0  0  0  0  0  0
   26.9662   79.8049   82.5692 H   0  0  0  0  0  0
   24.0263   79.7884   84.9515 H   0  0  0  0  0  0
   22.7484   77.7857   82.1563 H   0  0  0  0  0  0
   24.7887   76.8294   84.7790 H   0  0  0  0  0  0
   24.3153   77.7243   86.2197 H   0  0  0  0  0  0
   24.4481   80.0427   82.5923 H   0  0  0  0  0  0
   24.8795   78.3520   82.3937 H   0  0  0  0  0  0
   29.8703   76.0769   88.0787 H   0  0  0  0  0  0
   29.8069   74.3170   87.8592 H   0  0  0  0  0  0
   31.2050   75.2340   87.2497 H   0  0  0  0  0  0
   27.9583   74.7500   82.0194 H   0  0  0  0  0  0
   20.3890   77.1191   79.5671 H   0  0  0  0  0  0
   21.4170   78.0492   80.3829 H   0  0  0  0  0  0
   30.3679   72.7041   85.8965 H   0  0  0  0  0  0
   22.0817   79.0944   86.1927 H   0  0  0  0  0  0
   19.7096   78.5004   85.9962 H   0  0  0  0  0  0
   19.8276   76.0163   81.7437 H   0  0  0  0  0  0
   19.1885   77.6031   81.3639 H   0  0  0  0  0  0
   18.8364   77.5504   83.9063 H   0  0  0  0  0  0
   28.7765   72.4157   81.9291 H   0  0  0  0  0  0
   29.9597   71.4256   83.8129 H   0  0  0  0  0  0
  1  2  2  0  0  0
  1  3  1  0  0  0
  1  5  1  0  0  0
  2  4  1  0  0  0
  2 27  1  0  0  0
  3  6  1  0  0  0
  3  9  2  0  0  0
  4 16  1  0  0  0
  4  7  1  0  0  0
  5  7  2  0  0  0
  5 18  1  0  0  0
  6 10  1  0  0  0
  6 11  1  0  0  0
  7 20  1  0  0  0
  8 12  1  0  0  0
  8 13  2  0  0  0
  8 21  1  0  0  0
 10 14  1  0  0  0
 10 28  1  0  0  0
 10 29  1  0  0  0
 11 15  1  0  0  0
 11 30  1  0  0  0
 11 31  1  0  0  0
 12 15  1  0  0  0
 12 14  1  0  0  0
 12 32  1  0  0  0
 13 17  1  0  0  0
 13 33  1  0  0  0
 14 34  1  0  0  0
 14 35  1  0  0  0
 15 36  1  0  0  0
 15 37  1  0  0  0
 16 38  1  0  0  0
 16 39  1  0  0  0
 16 40  1  0  0  0
 17 23  1  0  0  0
 17 24  2  0  0  0
 18 25  2  0  0  0
 18 41  1  0  0  0
 19 23  1  0  0  0
 19 42  1  0  0  0
 19 43  1  0  0  0
 20 26  2  0  0  0
 20 44  1  0  0  0
 21 22  2  0  0  0
 21 45  1  0  0  0
 22 24  1  0  0  0
 22 46  1  0  0  0
 23 47  1  0  0  0
 23 48  1  0  0  0
 24 49  1  0  0  0
 25 26  1  0  0  0
 25 50  1  0  0  0
 26 51  1  0  0  0
M  END
> <s_m_entry_id>
40560

> <s_m_entry_name>
dock_pv.16

> <s_m_Source_Path>
/home/csk/Desktop/cluster/DUD-E-result/tryb1

> <s_m_Source_File>
dock_pv.maegz

> <i_m_Source_File_Index>
16

> <chembl_id>
CHEMBL191007

> <chembl_pref_name>
None

> <i_lp_mmshare_version>
53161

> <r_lp_tautomer_probability>
1

> <s_lp_Force_Field>
OPLS_2005

> <r_lp_Energy>
37.38654

> <b_lp_Chiralities_Consistent>
1

> <s_lp_Variant>
CHEMBL2617_lig123-1

> <s_i_glide_gridfile>
glide-grid_2zec

> <i_i_glide_lignum>
150

> <i_i_glide_rotatable_bonds>
4

> <r_i_docking_score>
-7.14445627776407

> <r_i_glide_ligand_efficiency>
-0.274786779914003

> <r_i_glide_ligand_efficiency_sa>
-0.814054754261464

> <r_i_glide_ligand_efficiency_ln>
-1.67785211395976

> <r_i_glide_gscore>
-7.14445627776407

> <r_i_glide_lipo>
-3.56412605189473

> <r_i_glide_hbond>
-0.440273950461931

> <r_i_glide_metal>
0

> <r_i_glide_rewards>
-1.04105069965355

> <r_i_glide_evdw>
-39.1118316650391

> <r_i_glide_ecoul>
-4.10287380218506

> <r_i_glide_erotb>
0.472762434971561

> <r_i_glide_esite>
-0.000745357145695742

> <r_i_glide_emodel>
-58.9314446296826

> <r_i_glide_energy>
-43.2147054672241

> <r_i_glide_einternal>
4.63508749008179

> <i_i_glide_confnum>
27

> <i_i_glide_posenum>
11

> <r_i_glide_eff_state_penalty>
0

> <s_user_duplicate_titles>
CHEMBL2617_lig123,319410

> <i_f3d_flags>
0

> <s_m_subgroup_title>
dock_pv

> <s_m_subgroupid>
dock_pv

> <b_m_subgroup_collapsed>
1

$$$$
CHEMBL2617_lig86
                    3D
 Schrodinger Suite 2021-1.
 55 58  0  0  1  0            999 V2000
   25.9508   79.6093   85.4044 N   0  0  0  0  0  0
   27.6111   78.5846   83.3937 N   0  0  0  0  0  0
   27.2370   77.8444   84.3802 C   0  0  0  0  0  0
   26.3871   78.2940   85.5203 C   0  0  0  0  0  0
   27.1910   79.8867   83.3727 C   0  0  0  0  0  0
   26.3678   80.4063   84.3325 C   0  0  0  0  0  0
   27.5967   76.5044   84.4190 N   0  0  0  0  0  0
   25.0108   80.0741   86.4617 C   0  0  0  0  0  0
   23.5670   79.5605   86.2663 C   0  0  0  0  0  0
   28.4315   75.7970   83.4601 C   0  0  0  0  0  0
   30.4794   74.5899   83.2990 C   0  0  0  0  0  0
   29.4422   73.6712   83.1076 C   0  0  0  0  0  0
   23.2115   79.0503   85.0616 N   0  0  0  0  0  0
   26.0882   77.5523   86.4678 O   0  0  0  0  0  0
   29.9257   75.9163   83.7673 C   0  0  0  0  0  0
   28.1106   74.3028   83.4344 C   0  0  0  0  0  0
   27.8021   80.8312   82.0102 Cl  0  0  0  0  0  0
   22.8087   79.6573   87.2296 O   0  0  0  0  0  0
   22.0495   78.3352   84.7233 C   0  0  0  0  0  0
   21.7685   78.1448   83.3635 C   0  0  0  0  0  0
   25.8598   81.8499   84.3121 C   0  0  0  0  0  0
   20.6718   77.3615   82.9609 C   0  0  0  0  0  0
   20.9500   77.9520   80.5558 N   0  0  0  0  0  0
   20.1482   76.9501   85.2827 C   0  0  0  0  0  0
   31.8082   74.1819   83.1710 C   0  0  0  0  0  0
   29.7324   72.3469   82.7839 C   0  0  0  0  0  0
   21.2295   77.7221   85.6789 C   0  0  0  0  0  0
   20.3758   77.0223   81.5026 C   0  0  0  0  0  0
   19.8579   76.7804   83.9341 C   0  0  0  0  0  0
   32.0957   72.8617   82.8210 C   0  0  0  0  0  0
   31.0597   71.9486   82.6240 C   0  0  0  0  0  0
   27.4027   76.0094   85.2767 H   0  0  0  0  0  0
   25.0214   81.1541   86.5897 H   0  0  0  0  0  0
   25.3657   79.7018   87.4241 H   0  0  0  0  0  0
   28.2519   76.1866   82.4551 H   0  0  0  0  0  0
   23.8667   79.1751   84.3051 H   0  0  0  0  0  0
   30.3595   76.7574   83.2262 H   0  0  0  0  0  0
   30.1070   76.0720   84.8320 H   0  0  0  0  0  0
   27.7327   73.9519   84.3955 H   0  0  0  0  0  0
   27.3548   74.0875   82.6775 H   0  0  0  0  0  0
   22.4187   78.5779   82.6162 H   0  0  0  0  0  0
   26.1748   82.3989   83.4255 H   0  0  0  0  0  0
   24.7696   81.8794   84.3306 H   0  0  0  0  0  0
   26.2333   82.4019   85.1755 H   0  0  0  0  0  0
   21.9499   77.8265   80.4166 H   0  0  0  0  0  0
   20.5133   77.8481   79.6419 H   0  0  0  0  0  0
   19.5518   76.4474   86.0274 H   0  0  0  0  0  0
   32.6183   74.8742   83.3465 H   0  0  0  0  0  0
   28.9435   71.6208   82.6520 H   0  0  0  0  0  0
   21.4327   77.7905   86.7355 H   0  0  0  0  0  0
   19.2971   77.0319   81.3470 H   0  0  0  0  0  0
   20.7236   76.0133   81.2799 H   0  0  0  0  0  0
   19.0295   76.1493   83.6453 H   0  0  0  0  0  0
   33.1210   72.5400   82.7175 H   0  0  0  0  0  0
   31.2867   70.9237   82.3649 H   0  0  0  0  0  0
  1  4  1  0  0  0
  1  6  1  0  0  0
  1  8  1  0  0  0
  2  5  1  0  0  0
  2  3  2  0  0  0
  3  4  1  0  0  0
  3  7  1  0  0  0
  4 14  2  0  0  0
  5  6  2  0  0  0
  5 17  1  0  0  0
  6 21  1  0  0  0
  7 10  1  0  0  0
  7 32  1  0  0  0
  8  9  1  0  0  0
  8 33  1  0  0  0
  8 34  1  0  0  0
  9 13  1  0  0  0
  9 18  2  0  0  0
 10 15  1  0  0  0
 10 16  1  0  0  0
 10 35  1  0  0  0
 11 15  1  0  0  0
 11 25  2  0  0  0
 11 12  1  0  0  0
 12 16  1  0  0  0
 12 26  2  0  0  0
 13 19  1  0  0  0
 13 36  1  0  0  0
 15 37  1  0  0  0
 15 38  1  0  0  0
 16 39  1  0  0  0
 16 40  1  0  0  0
 19 20  2  0  0  0
 19 27  1  0  0  0
 20 22  1  0  0  0
 20 41  1  0  0  0
 21 42  1  0  0  0
 21 43  1  0  0  0
 21 44  1  0  0  0
 22 28  1  0  0  0
 22 29  2  0  0  0
 23 28  1  0  0  0
 23 45  1  0  0  0
 23 46  1  0  0  0
 24 27  2  0  0  0
 24 29  1  0  0  0
 24 47  1  0  0  0
 25 30  1  0  0  0
 25 48  1  0  0  0
 26 31  1  0  0  0
 26 49  1  0  0  0
 27 50  1  0  0  0
 28 51  1  0  0  0
 28 52  1  0  0  0
 29 53  1  0  0  0
 30 31  2  0  0  0
 30 54  1  0  0  0
 31 55  1  0  0  0
M  END
> <s_m_entry_id>
40561

> <s_m_entry_name>
dock_pv.17

> <s_m_Source_Path>
/home/csk/Desktop/cluster/DUD-E-result/tryb1

> <s_m_Source_File>
dock_pv.maegz

> <i_m_Source_File_Index>
17

> <chembl_id>
CHEMBL360210

> <chembl_pref_name>
None

> <i_lp_mmshare_version>
53161

> <r_lp_tautomer_probability>
1

> <s_lp_Force_Field>
OPLS_2005

> <r_lp_Energy>
43.139134

> <b_lp_Chiralities_Consistent>
1

> <s_lp_Variant>
CHEMBL2617_lig86-1

> <s_i_glide_gridfile>
glide-grid_2zec

> <i_i_glide_lignum>
111

> <i_i_glide_rotatable_bonds>
7

> <r_i_docking_score>
-7.13367031579199

> <r_i_glide_ligand_efficiency>
-0.230118397283613

> <r_i_glide_ligand_efficiency_sa>
-0.722889480158592

> <r_i_glide_ligand_efficiency_ln>
-1.60886127695091

> <r_i_glide_gscore>
-7.13367031579199

> <r_i_glide_lipo>
-3.6103867600645

> <r_i_glide_hbond>
-0.444080689804091

> <r_i_glide_metal>
0

> <r_i_glide_rewards>
-0.609456163704304

> <r_i_glide_evdw>
-42.8102951049805

> <r_i_glide_ecoul>
-6.26917314529419

> <r_i_glide_erotb>
0.62402483835599

> <r_i_glide_esite>
-0.0128808135319337

> <r_i_glide_emodel>
-66.3612765983719

> <r_i_glide_energy>
-49.0794682502747

> <r_i_glide_einternal>
3.79487943649292

> <i_i_glide_confnum>
4

> <i_i_glide_posenum>
27

> <r_i_glide_eff_state_penalty>
0

> <s_user_duplicate_titles>
CHEMBL2617_lig86,308661

> <i_f3d_flags>
0

> <s_m_subgroup_title>
dock_pv

> <s_m_subgroupid>
dock_pv

> <b_m_subgroup_collapsed>
1

$$$$
CHEMBL2617_lig118
                    3D
 Schrodinger Suite 2021-1.
 61 65  0  0  1  0            999 V2000
   29.1533   75.2746   87.3531 N   0  0  0  0  0  0
   30.0721   75.7064   85.9676 S   0  0  0  0  0  0
   27.2613   75.0895   88.6254 C   0  0  0  0  0  0
   27.8259   75.5996   87.4669 C   0  0  0  0  0  0
   25.8785   75.2227   89.0377 C   0  0  0  0  0  0
   28.3005   74.2586   89.1847 C   0  0  0  0  0  0
   29.4661   74.3764   88.3575 C   0  0  0  0  0  0
   25.1795   76.3586   88.7395 N   0  0  0  0  0  0
   29.5603   77.0165   85.5479 O   0  0  0  0  0  0
   31.4837   75.4998   86.3089 O   0  0  0  0  0  0
   29.5921   74.5013   84.7390 C   0  0  0  0  0  0
   22.8310   78.0204   85.5161 C   0  0  0  0  0  0
   25.3776   74.2898   89.6681 O   0  0  0  0  0  0
   23.7505   76.4557   89.0610 C   0  0  0  0  0  0
   25.7177   77.6289   88.2208 C   0  0  0  0  0  0
   23.5125   77.8642   86.8931 C   0  0  0  0  0  0
   21.5185   77.5660   85.3014 C   0  0  0  0  0  0
   22.9987   76.6580   87.7327 C   0  0  0  0  0  0
   25.0684   77.8758   86.8422 C   0  0  0  0  0  0
   20.8967   77.7050   84.0566 C   0  0  0  0  0  0
   28.3667   73.4255   90.3164 C   0  0  0  0  0  0
   30.6450   73.6713   88.6335 C   0  0  0  0  0  0
   19.3503   76.3521   82.6915 N   0  0  0  0  0  0
   23.4933   78.6519   84.4523 C   0  0  0  0  0  0
   22.8723   78.8129   83.2162 C   0  0  0  0  0  0
   19.4784   77.1944   83.8676 C   0  0  0  0  0  0
   28.5300   74.7883   83.8768 C   0  0  0  0  0  0
   30.2719   73.2841   84.6523 C   0  0  0  0  0  0
   21.5765   78.3471   83.0168 C   0  0  0  0  0  0
   29.5507   72.7525   90.6024 C   0  0  0  0  0  0
   30.6616   72.8715   89.7741 C   0  0  0  0  0  0
   29.8985   72.3572   83.6832 C   0  0  0  0  0  0
   28.1593   73.8612   82.9102 C   0  0  0  0  0  0
   28.8501   72.6564   82.8162 C   0  0  0  0  0  0
   27.3881   76.2012   86.6834 H   0  0  0  0  0  0
   23.6183   77.3290   89.6990 H   0  0  0  0  0  0
   23.3719   75.5964   89.6168 H   0  0  0  0  0  0
   25.3852   78.4081   88.9090 H   0  0  0  0  0  0
   26.8010   77.7318   88.2671 H   0  0  0  0  0  0
   23.1971   78.7732   87.4092 H   0  0  0  0  0  0
   20.9683   77.0892   86.0972 H   0  0  0  0  0  0
   21.9570   76.8109   88.0143 H   0  0  0  0  0  0
   23.0534   75.7269   87.1714 H   0  0  0  0  0  0
   25.4327   77.1480   86.1159 H   0  0  0  0  0  0
   25.4240   78.8593   86.5349 H   0  0  0  0  0  0
   27.5125   73.3211   90.9678 H   0  0  0  0  0  0
   31.5242   73.7551   88.0135 H   0  0  0  0  0  0
   19.7452   76.8025   81.8770 H   0  0  0  0  0  0
   19.8499   75.4729   82.8154 H   0  0  0  0  0  0
   24.4951   79.0380   84.5598 H   0  0  0  0  0  0
   23.3937   79.3075   82.4096 H   0  0  0  0  0  0
   18.8067   78.0498   83.7912 H   0  0  0  0  0  0
   19.1686   76.6125   84.7352 H   0  0  0  0  0  0
   28.0011   75.7290   83.9439 H   0  0  0  0  0  0
   31.0899   73.0633   85.3227 H   0  0  0  0  0  0
   21.1072   78.4883   82.0539 H   0  0  0  0  0  0
   29.6115   72.1306   91.4827 H   0  0  0  0  0  0
   31.5666   72.3422   90.0311 H   0  0  0  0  0  0
   30.4254   71.4177   83.5930 H   0  0  0  0  0  0
   27.3510   74.0797   82.2275 H   0  0  0  0  0  0
   28.5697   71.9522   82.0483 H   0  0  0  0  0  0
  1  2  1  0  0  0
  1  4  1  0  0  0
  1  7  1  0  0  0
  2  9  2  0  0  0
  2 10  2  0  0  0
  2 11  1  0  0  0
  3  4  2  0  0  0
  3  5  1  0  0  0
  3  6  1  0  0  0
  4 35  1  0  0  0
  5  8  1  0  0  0
  5 13  2  0  0  0
  6  7  2  0  0  0
  6 21  1  0  0  0
  7 22  1  0  0  0
  8 14  1  0  0  0
  8 15  1  0  0  0
 11 27  2  0  0  0
 11 28  1  0  0  0
 12 16  1  0  0  0
 12 17  2  0  0  0
 12 24  1  0  0  0
 14 18  1  0  0  0
 14 36  1  0  0  0
 14 37  1  0  0  0
 15 19  1  0  0  0
 15 38  1  0  0  0
 15 39  1  0  0  0
 16 19  1  0  0  0
 16 18  1  0  0  0
 16 40  1  0  0  0
 17 20  1  0  0  0
 17 41  1  0  0  0
 18 42  1  0  0  0
 18 43  1  0  0  0
 19 44  1  0  0  0
 19 45  1  0  0  0
 20 26  1  0  0  0
 20 29  2  0  0  0
 21 30  2  0  0  0
 21 46  1  0  0  0
 22 31  2  0  0  0
 22 47  1  0  0  0
 23 26  1  0  0  0
 23 48  1  0  0  0
 23 49  1  0  0  0
 24 25  2  0  0  0
 24 50  1  0  0  0
 25 29  1  0  0  0
 25 51  1  0  0  0
 26 52  1  0  0  0
 26 53  1  0  0  0
 27 33  1  0  0  0
 27 54  1  0  0  0
 28 32  2  0  0  0
 28 55  1  0  0  0
 29 56  1  0  0  0
 30 31  1  0  0  0
 30 57  1  0  0  0
 31 58  1  0  0  0
 32 34  1  0  0  0
 32 59  1  0  0  0
 33 34  2  0  0  0
 33 60  1  0  0  0
 34 61  1  0  0  0
M  END
> <s_m_entry_id>
40562

> <s_m_entry_name>
dock_pv.18

> <s_m_Source_Path>
/home/csk/Desktop/cluster/DUD-E-result/tryb1

> <s_m_Source_File>
dock_pv.maegz

> <i_m_Source_File_Index>
18

> <chembl_id>
CHEMBL189531

> <chembl_pref_name>
None

> <i_lp_mmshare_version>
53161

> <r_lp_tautomer_probability>
1

> <s_lp_Force_Field>
OPLS_2005

> <r_lp_Energy>
37.369645

> <b_lp_Chiralities_Consistent>
1

> <s_lp_Variant>
CHEMBL2617_lig118-1

> <s_i_glide_gridfile>
glide-grid_2zec

> <i_i_glide_lignum>
145

> <i_i_glide_rotatable_bonds>
6

> <r_i_docking_score>
-7.09067916362471

> <r_i_glide_ligand_efficiency>
-0.208549387165433

> <r_i_glide_ligand_efficiency_sa>
-0.675619055016164

> <r_i_glide_ligand_efficiency_ln>
-1.56652991405849

> <r_i_glide_gscore>
-7.09067916362471

> <r_i_glide_lipo>
-3.62977183330023

> <r_i_glide_hbond>
-0.417869524105056

> <r_i_glide_metal>
0

> <r_i_glide_rewards>
-0.381512705592677

> <r_i_glide_evdw>
-44.1755332946777

> <r_i_glide_ecoul>
-6.02470922470093

> <r_i_glide_erotb>
0.450957947812272

> <r_i_glide_esite>
0

> <r_i_glide_emodel>
-69.1966141567358

> <r_i_glide_energy>
-50.2002425193787

> <r_i_glide_einternal>
4.58777284622192

> <i_i_glide_confnum>
18

> <i_i_glide_posenum>
400

> <r_i_glide_eff_state_penalty>
0

> <s_user_duplicate_titles>
CHEMBL2617_lig118,319660

> <i_f3d_flags>
0

> <s_m_subgroup_title>
dock_pv

> <s_m_subgroupid>
dock_pv

> <b_m_subgroup_collapsed>
1

$$$$
CHEMBL2617_lig122
                    3D
 Schrodinger Suite 2021-1.
 57 60  0  0  1  0            999 V2000
   28.3519   76.4480   84.4087 C   0  0  0  0  0  0
   28.9237   76.5842   85.6679 C   0  0  0  0  0  0
   27.7681   77.5245   83.6290 C   0  0  0  0  0  0
   29.4677   75.4047   86.1143 N   0  0  0  0  0  0
   28.6716   75.0922   84.0189 C   0  0  0  0  0  0
   27.0066   78.4723   84.2544 N   0  0  0  0  0  0
   29.3515   74.4618   85.1114 C   0  0  0  0  0  0
   22.6761   78.5240   84.2340 C   0  0  0  0  0  0
   27.9919   77.5520   82.4169 O   0  0  0  0  0  0
   26.3539   78.3070   85.5707 C   0  0  0  0  0  0
   26.4263   79.5790   83.4643 C   0  0  0  0  0  0
   24.1463   78.9114   84.4308 C   0  0  0  0  0  0
   22.1967   77.9744   83.0374 C   0  0  0  0  0  0
   24.8893   77.8874   85.3190 C   0  0  0  0  0  0
   24.9573   79.2087   83.1391 C   0  0  0  0  0  0
   30.0475   75.1943   87.4393 C   0  0  0  0  0  0
   20.8469   77.6211   82.8958 C   0  0  0  0  0  0
   28.4330   74.3254   82.8635 C   0  0  0  0  0  0
   20.9499   77.5668   80.4170 N   0  0  0  0  0  0
   29.7818   73.1286   85.0589 C   0  0  0  0  0  0
   21.7836   78.7055   85.2973 C   0  0  0  0  0  0
   20.4472   78.3340   85.1754 C   0  0  0  0  0  0
   20.3013   77.0313   81.5979 C   0  0  0  0  0  0
   19.9842   77.7826   83.9832 C   0  0  0  0  0  0
   29.1266   74.3335   88.3339 C   0  0  0  0  0  0
   28.8585   72.9992   82.8172 C   0  0  0  0  0  0
   29.5215   72.4181   83.8894 C   0  0  0  0  0  0
   27.7195   74.9167   88.5541 C   0  0  0  0  0  0
   28.9843   77.4548   86.3067 H   0  0  0  0  0  0
   26.8638   77.6646   86.2813 H   0  0  0  0  0  0
   26.3815   79.2850   86.0542 H   0  0  0  0  0  0
   26.4561   80.4698   84.0932 H   0  0  0  0  0  0
   27.0346   79.8499   82.5991 H   0  0  0  0  0  0
   24.0930   79.8536   84.9817 H   0  0  0  0  0  0
   22.8650   77.8194   82.2045 H   0  0  0  0  0  0
   24.8662   76.8914   84.8727 H   0  0  0  0  0  0
   24.4073   77.8222   86.2949 H   0  0  0  0  0  0
   24.5139   80.0514   82.6066 H   0  0  0  0  0  0
   24.9646   78.3547   82.4603 H   0  0  0  0  0  0
   31.0225   74.7212   87.3138 H   0  0  0  0  0  0
   30.2265   76.1672   87.8998 H   0  0  0  0  0  0
   27.9131   74.7514   82.0196 H   0  0  0  0  0  0
   21.8718   77.1887   80.2460 H   0  0  0  0  0  0
   20.4052   77.4514   79.5621 H   0  0  0  0  0  0
   30.2980   72.6609   85.8839 H   0  0  0  0  0  0
   22.1268   79.1312   86.2289 H   0  0  0  0  0  0
   19.7692   78.4819   86.0028 H   0  0  0  0  0  0
   20.3936   75.9497   81.6163 H   0  0  0  0  0  0
   19.2423   77.2679   81.5107 H   0  0  0  0  0  0
   18.9475   77.4950   83.9033 H   0  0  0  0  0  0
   29.0367   73.3295   87.9167 H   0  0  0  0  0  0
   29.6071   74.2014   89.3044 H   0  0  0  0  0  0
   28.6747   72.4060   81.9322 H   0  0  0  0  0  0
   29.8402   71.3882   83.8093 H   0  0  0  0  0  0
   27.1352   74.2808   89.2198 H   0  0  0  0  0  0
   27.7690   75.9089   89.0039 H   0  0  0  0  0  0
   27.1671   75.0031   87.6178 H   0  0  0  0  0  0
  1  2  2  0  0  0
  1  3  1  0  0  0
  1  5  1  0  0  0
  2  4  1  0  0  0
  2 29  1  0  0  0
  3  6  1  0  0  0
  3  9  2  0  0  0
  4 16  1  0  0  0
  4  7  1  0  0  0
  5  7  2  0  0  0
  5 18  1  0  0  0
  6 10  1  0  0  0
  6 11  1  0  0  0
  7 20  1  0  0  0
  8 12  1  0  0  0
  8 13  2  0  0  0
  8 21  1  0  0  0
 10 14  1  0  0  0
 10 30  1  0  0  0
 10 31  1  0  0  0
 11 15  1  0  0  0
 11 32  1  0  0  0
 11 33  1  0  0  0
 12 15  1  0  0  0
 12 14  1  0  0  0
 12 34  1  0  0  0
 13 17  1  0  0  0
 13 35  1  0  0  0
 14 36  1  0  0  0
 14 37  1  0  0  0
 15 38  1  0  0  0
 15 39  1  0  0  0
 16 25  1  0  0  0
 16 40  1  0  0  0
 16 41  1  0  0  0
 17 23  1  0  0  0
 17 24  2  0  0  0
 18 26  2  0  0  0
 18 42  1  0  0  0
 19 23  1  0  0  0
 19 43  1  0  0  0
 19 44  1  0  0  0
 20 27  2  0  0  0
 20 45  1  0  0  0
 21 22  2  0  0  0
 21 46  1  0  0  0
 22 24  1  0  0  0
 22 47  1  0  0  0
 23 48  1  0  0  0
 23 49  1  0  0  0
 24 50  1  0  0  0
 25 28  1  0  0  0
 25 51  1  0  0  0
 25 52  1  0  0  0
 26 27  1  0  0  0
 26 53  1  0  0  0
 27 54  1  0  0  0
 28 55  1  0  0  0
 28 56  1  0  0  0
 28 57  1  0  0  0
M  END
> <s_m_entry_id>
40563

> <s_m_entry_name>
dock_pv.19

> <s_m_Source_Path>
/home/csk/Desktop/cluster/DUD-E-result/tryb1

> <s_m_Source_File>
dock_pv.maegz

> <i_m_Source_File_Index>
19

> <chembl_id>
CHEMBL361040

> <chembl_pref_name>
None

> <i_lp_mmshare_version>
53161

> <r_lp_tautomer_probability>
1

> <s_lp_Force_Field>
OPLS_2005

> <r_lp_Energy>
39.234805

> <b_lp_Chiralities_Consistent>
1

> <s_lp_Variant>
CHEMBL2617_lig122-1

> <s_i_glide_gridfile>
glide-grid_2zec

> <i_i_glide_lignum>
149

> <i_i_glide_rotatable_bonds>
6

> <r_i_docking_score>
-7.0599491369961

> <r_i_glide_ligand_efficiency>
-0.252141040607003

> <r_i_glide_ligand_efficiency_sa>
-0.765648702414047

> <r_i_glide_ligand_efficiency_ln>
-1.62964354993264

> <r_i_glide_gscore>
-7.0599491369961

> <r_i_glide_lipo>
-3.73204492873255

> <r_i_glide_hbond>
-0.495958115654015

> <r_i_glide_metal>
0

> <r_i_glide_rewards>
-0.84443823409769

> <r_i_glide_evdw>
-39.3424797058105

> <r_i_glide_ecoul>
-3.79487872123718

> <r_i_glide_erotb>
0.548847934964265

> <r_i_glide_esite>
0

> <r_i_glide_emodel>
-57.7155695928226

> <r_i_glide_energy>
-43.1373584270477

> <r_i_glide_einternal>
4.85432624816895

> <i_i_glide_confnum>
14

> <i_i_glide_posenum>
183

> <r_i_glide_eff_state_penalty>
0

> <s_user_duplicate_titles>
CHEMBL2617_lig122,319634

> <i_f3d_flags>
0

> <s_m_subgroup_title>
dock_pv

> <s_m_subgroupid>
dock_pv

> <b_m_subgroup_collapsed>
1

$$$$
CHEMBL2617_lig126
                    3D
 Schrodinger Suite 2021-1.
 60 63  0  0  1  0            999 V2000
   28.3361   76.4386   84.4127 C   0  0  0  0  0  0
   29.4258   75.4058   86.1418 N   0  0  0  0  0  0
   28.8722   76.5784   85.6876 C   0  0  0  0  0  0
   27.7506   77.5064   83.6203 C   0  0  0  0  0  0
   28.6899   75.0912   84.0261 C   0  0  0  0  0  0
   29.3580   74.4683   85.1294 C   0  0  0  0  0  0
   26.9362   78.4229   84.2247 N   0  0  0  0  0  0
   29.9699   75.1933   87.4818 C   0  0  0  0  0  0
   22.5940   78.4897   84.1924 C   0  0  0  0  0  0
   28.0186   77.5521   82.4173 O   0  0  0  0  0  0
   26.2668   78.2353   85.5292 C   0  0  0  0  0  0
   26.3580   79.5320   83.4340 C   0  0  0  0  0  0
   24.0712   78.8567   84.3849 C   0  0  0  0  0  0
   22.0812   77.9767   82.9904 C   0  0  0  0  0  0
   24.8092   77.8129   85.2525 C   0  0  0  0  0  0
   24.8838   79.1813   83.1023 C   0  0  0  0  0  0
   20.7164   77.6597   82.8690 C   0  0  0  0  0  0
   28.4892   74.3270   82.8637 C   0  0  0  0  0  0
   20.9499   77.1520   80.4170 N   0  0  0  0  0  0
   29.8217   73.1457   85.0766 C   0  0  0  0  0  0
   21.7264   78.6644   85.2772 C   0  0  0  0  0  0
   29.0485   74.2905   88.3444 C   0  0  0  0  0  0
   20.3797   78.3328   85.1729 C   0  0  0  0  0  0
   20.0781   77.1526   81.5749 C   0  0  0  0  0  0
   19.8800   77.8310   83.9755 C   0  0  0  0  0  0
   27.6258   74.8625   88.5164 C   0  0  0  0  0  0
   29.6897   73.9995   89.7124 C   0  0  0  0  0  0
   28.9431   73.0100   82.8168 C   0  0  0  0  0  0
   29.5998   72.4372   83.8978 C   0  0  0  0  0  0
   28.8974   77.4456   86.3329 H   0  0  0  0  0  0
   30.9571   74.7422   87.3677 H   0  0  0  0  0  0
   30.1257   76.1622   87.9597 H   0  0  0  0  0  0
   26.7681   77.5840   86.2372 H   0  0  0  0  0  0
   26.2822   79.2060   86.0273 H   0  0  0  0  0  0
   26.3906   80.4189   84.0688 H   0  0  0  0  0  0
   26.9669   79.8051   82.5705 H   0  0  0  0  0  0
   24.0288   79.7878   84.9552 H   0  0  0  0  0  0
   22.7380   77.8286   82.1470 H   0  0  0  0  0  0
   24.7947   76.8287   84.7801 H   0  0  0  0  0  0
   24.3187   77.7210   86.2221 H   0  0  0  0  0  0
   24.4487   80.0435   82.5954 H   0  0  0  0  0  0
   24.8790   78.3521   82.3966 H   0  0  0  0  0  0
   27.9728   74.7516   82.0184 H   0  0  0  0  0  0
   20.3965   77.1445   79.5606 H   0  0  0  0  0  0
   21.4819   78.0117   80.3699 H   0  0  0  0  0  0
   30.3308   72.6837   85.9094 H   0  0  0  0  0  0
   22.0967   79.0594   86.2120 H   0  0  0  0  0  0
   28.9498   73.3277   87.8400 H   0  0  0  0  0  0
   19.7195   78.4825   86.0144 H   0  0  0  0  0  0
   19.6952   76.1421   81.7259 H   0  0  0  0  0  0
   19.2303   77.7894   81.3373 H   0  0  0  0  0  0
   18.8303   77.5896   83.9081 H   0  0  0  0  0  0
   27.6457   75.8337   89.0122 H   0  0  0  0  0  0
   27.1237   74.9929   87.5572 H   0  0  0  0  0  0
   27.0032   74.1972   89.1160 H   0  0  0  0  0  0
   29.8221   74.9120   90.2949 H   0  0  0  0  0  0
   29.0748   73.3169   90.3005 H   0  0  0  0  0  0
   30.6689   73.5328   89.5994 H   0  0  0  0  0  0
   28.7874   72.4193   81.9245 H   0  0  0  0  0  0
   29.9428   71.4153   83.8177 H   0  0  0  0  0  0
  1  3  2  0  0  0
  1  4  1  0  0  0
  1  5  1  0  0  0
  2  3  1  0  0  0
  2  8  1  0  0  0
  2  6  1  0  0  0
  3 30  1  0  0  0
  4  7  1  0  0  0
  4 10  2  0  0  0
  5  6  2  0  0  0
  5 18  1  0  0  0
  6 20  1  0  0  0
  7 11  1  0  0  0
  7 12  1  0  0  0
  8 22  1  0  0  0
  8 31  1  0  0  0
  8 32  1  0  0  0
  9 13  1  0  0  0
  9 14  2  0  0  0
  9 21  1  0  0  0
 11 15  1  0  0  0
 11 33  1  0  0  0
 11 34  1  0  0  0
 12 16  1  0  0  0
 12 35  1  0  0  0
 12 36  1  0  0  0
 13 16  1  0  0  0
 13 15  1  0  0  0
 13 37  1  0  0  0
 14 17  1  0  0  0
 14 38  1  0  0  0
 15 39  1  0  0  0
 15 40  1  0  0  0
 16 41  1  0  0  0
 16 42  1  0  0  0
 17 24  1  0  0  0
 17 25  2  0  0  0
 18 28  2  0  0  0
 18 43  1  0  0  0
 19 24  1  0  0  0
 19 44  1  0  0  0
 19 45  1  0  0  0
 20 29  2  0  0  0
 20 46  1  0  0  0
 21 23  2  0  0  0
 21 47  1  0  0  0
 22 26  1  0  0  0
 22 27  1  0  0  0
 22 48  1  0  0  0
 23 25  1  0  0  0
 23 49  1  0  0  0
 24 50  1  0  0  0
 24 51  1  0  0  0
 25 52  1  0  0  0
 26 53  1  0  0  0
 26 54  1  0  0  0
 26 55  1  0  0  0
 27 56  1  0  0  0
 27 57  1  0  0  0
 27 58  1  0  0  0
 28 29  1  0  0  0
 28 59  1  0  0  0
 29 60  1  0  0  0
M  END
> <s_m_entry_id>
40564

> <s_m_entry_name>
dock_pv.20

> <s_m_Source_Path>
/home/csk/Desktop/cluster/DUD-E-result/tryb1

> <s_m_Source_File>
dock_pv.maegz

> <i_m_Source_File_Index>
20

> <chembl_id>
CHEMBL365189

> <chembl_pref_name>
None

> <i_lp_mmshare_version>
53161

> <r_lp_tautomer_probability>
1

> <s_lp_Force_Field>
OPLS_2005

> <r_lp_Energy>
38.946505

> <b_lp_Chiralities_Consistent>
1

> <s_lp_Variant>
CHEMBL2617_lig126-1

> <s_i_glide_gridfile>
glide-grid_2zec

> <i_i_glide_lignum>
153

> <i_i_glide_rotatable_bonds>
6

> <r_i_docking_score>
-7.02837918534814

> <r_i_glide_ligand_efficiency>
-0.242357902943039

> <r_i_glide_ligand_efficiency_sa>
-0.744600262214074

> <r_i_glide_ligand_efficiency_ln>
-1.6093206091262

> <r_i_glide_gscore>
-7.02837918534814

> <r_i_glide_lipo>
-3.59233441180974

> <r_i_glide_hbond>
-0.487695510205492

> <r_i_glide_metal>
0

> <r_i_glide_rewards>
-0.7561144515648

> <r_i_glide_evdw>
-41.0100898742676

> <r_i_glide_ecoul>
-4.36567211151123

> <r_i_glide_erotb>
0.51392478912429

> <r_i_glide_esite>
-0.000804290452336857

> <r_i_glide_emodel>
-61.2495840772893

> <r_i_glide_energy>
-45.3757619857788

> <r_i_glide_einternal>
5.74270057678223

> <i_i_glide_confnum>
2

> <i_i_glide_posenum>
20

> <r_i_glide_eff_state_penalty>
0

> <s_user_duplicate_titles>
CHEMBL2617_lig126,319375

> <i_f3d_flags>
0

> <s_m_subgroup_title>
dock_pv

> <s_m_subgroupid>
dock_pv

> <b_m_subgroup_collapsed>
1

$$$$
CHEMBL2617_lig184
                    3D
 Schrodinger Suite 2021-1.
 73 76  0  0  1  0            999 V2000
   25.9641   75.1189   88.2158 C   0  0  0  0  0  0
   25.1939   74.5451   89.2429 C   0  0  0  0  0  0
   25.8012   73.7767   90.2402 C   0  0  0  0  0  0
   27.1783   73.5743   90.2262 C   0  0  0  0  0  0
   27.9515   74.1347   89.2145 C   0  0  0  0  0  0
   27.3490   74.8951   88.2138 C   0  0  0  0  0  0
   25.0546   73.2144   91.2161 F   0  0  0  0  0  0
   29.2890   73.9393   89.2001 F   0  0  0  0  0  0
   25.3392   75.9527   87.1229 C   0  0  0  0  0  0
   24.2587   76.6774   87.4693 N   0  0  0  0  0  0
   25.8309   75.9803   85.9927 O   0  0  0  0  0  0
   23.5179   77.6048   86.5971 C   0  0  2  0  0  0
   23.9864   79.0024   87.0089 C   0  0  0  0  0  0
   24.7684   79.8031   86.0626 C   0  0  0  0  0  0
   23.7264   79.4332   88.1384 O   0  0  0  0  0  0
   25.5874   80.7498   86.4700 N   0  0  0  0  0  0
   26.1556   81.2351   85.2960 O   0  0  0  0  0  0
   25.5702   80.5142   84.3175 C   0  0  0  0  0  0
   24.7208   79.6252   84.7535 N   0  0  0  0  0  0
   22.0071   77.4092   86.8597 C   0  0  0  0  0  0
   21.0777   78.1641   85.8916 C   0  0  0  0  0  0
   21.0241   77.5584   84.4857 C   0  0  0  0  0  0
   19.8041   78.0678   83.7189 C   0  0  0  0  0  0
   19.7514   77.4414   82.4160 N   0  0  0  0  0  0
   26.0443   80.7299   82.8991 C   0  0  0  0  0  0
   27.3790   80.0511   82.5892 C   0  0  0  0  0  0
   28.3058   80.6909   81.7594 C   0  0  0  0  0  0
   29.5055   80.0647   81.4325 C   0  0  0  0  0  0
   29.8048   78.7937   81.9424 C   0  0  0  0  0  0
   28.8727   78.1612   82.7803 C   0  0  0  0  0  0
   27.6675   78.7788   83.0894 C   0  0  0  0  0  0
   31.0981   78.1160   81.5496 C   0  0  0  0  0  0
   31.6547   78.3855   80.4842 O   0  0  0  0  0  0
   31.5881   77.2074   82.4157 N   0  0  0  0  0  0
   32.7221   76.3232   82.1357 C   0  0  0  0  0  0
   32.3563   75.0542   81.3256 C   0  0  0  0  0  0
   31.4284   74.0665   82.0319 C   0  0  0  0  0  0
   31.8420   72.7548   82.2865 C   0  0  0  0  0  0
   30.9801   71.8418   82.8888 C   0  0  0  0  0  0
   29.7102   72.2464   83.2970 C   0  0  0  0  0  0
   29.2956   73.5573   83.0733 C   0  0  0  0  0  0
   30.1396   74.4494   82.4170 C   0  0  0  0  0  0
   27.7496   74.0876   83.6164 Cl  0  0  0  0  0  0
   24.1205   74.6690   89.2749 H   0  0  0  0  0  0
   27.6485   72.9829   90.9980 H   0  0  0  0  0  0
   27.9739   75.3188   87.4385 H   0  0  0  0  0  0
   23.9241   76.6125   88.4181 H   0  0  0  0  0  0
   23.7242   77.3834   85.5482 H   0  0  0  0  0  0
   21.7575   76.3522   86.8227 H   0  0  0  0  0  0
   21.7753   77.7117   87.8790 H   0  0  0  0  0  0
   20.0675   78.1354   86.2954 H   0  0  0  0  0  0
   21.3448   79.2213   85.8385 H   0  0  0  0  0  0
   21.9436   77.7837   83.9425 H   0  0  0  0  0  0
   20.9498   76.4745   84.5562 H   0  0  0  0  0  0
   18.8913   77.8190   84.2604 H   0  0  0  0  0  0
   19.8324   79.1496   83.6174 H   0  0  0  0  0  0
   20.4804   77.7988   81.8122 H   0  0  0  0  0  0
   19.8995   76.4414   82.4856 H   0  0  0  0  0  0
   25.3021   80.3494   82.1933 H   0  0  0  0  0  0
   26.1191   81.7998   82.6993 H   0  0  0  0  0  0
   28.0960   81.6730   81.3557 H   0  0  0  0  0  0
   30.2011   80.5763   80.7805 H   0  0  0  0  0  0
   29.0559   77.1804   83.1933 H   0  0  0  0  0  0
   26.9627   78.2550   83.7196 H   0  0  0  0  0  0
   31.1442   77.1150   83.3160 H   0  0  0  0  0  0
   33.5660   76.8543   81.6848 H   0  0  0  0  0  0
   33.0742   76.0015   83.1157 H   0  0  0  0  0  0
   31.9071   75.3414   80.3735 H   0  0  0  0  0  0
   33.2817   74.5492   81.0431 H   0  0  0  0  0  0
   32.8342   72.4272   82.0159 H   0  0  0  0  0  0
   31.3075   70.8251   83.0545 H   0  0  0  0  0  0
   29.0485   71.5518   83.7880 H   0  0  0  0  0  0
   29.7812   75.4384   82.1929 H   0  0  0  0  0  0
  1  6  1  0  0  0
  1  2  2  0  0  0
  1  9  1  0  0  0
  2  3  1  0  0  0
  2 44  1  0  0  0
  3  7  1  0  0  0
  3  4  2  0  0  0
  4  5  1  0  0  0
  4 45  1  0  0  0
  5  6  2  0  0  0
  5  8  1  0  0  0
  6 46  1  0  0  0
  9 11  2  0  0  0
  9 10  1  0  0  0
 10 12  1  0  0  0
 10 47  1  0  0  0
 12 13  1  0  0  0
 12 20  1  0  0  0
 12 48  1  0  0  0
 13 14  1  0  0  0
 13 15  2  0  0  0
 14 16  2  0  0  0
 14 19  1  0  0  0
 16 17  1  0  0  0
 17 18  1  0  0  0
 18 25  1  0  0  0
 18 19  2  0  0  0
 20 21  1  0  0  0
 20 49  1  0  0  0
 20 50  1  0  0  0
 21 22  1  0  0  0
 21 51  1  0  0  0
 21 52  1  0  0  0
 22 23  1  0  0  0
 22 53  1  0  0  0
 22 54  1  0  0  0
 23 24  1  0  0  0
 23 55  1  0  0  0
 23 56  1  0  0  0
 24 57  1  0  0  0
 24 58  1  0  0  0
 25 26  1  0  0  0
 25 59  1  0  0  0
 25 60  1  0  0  0
 26 27  2  0  0  0
 26 31  1  0  0  0
 27 28  1  0  0  0
 27 61  1  0  0  0
 28 29  2  0  0  0
 28 62  1  0  0  0
 29 30  1  0  0  0
 29 32  1  0  0  0
 30 31  2  0  0  0
 30 63  1  0  0  0
 31 64  1  0  0  0
 32 33  2  0  0  0
 32 34  1  0  0  0
 34 35  1  0  0  0
 34 65  1  0  0  0
 35 36  1  0  0  0
 35 66  1  0  0  0
 35 67  1  0  0  0
 36 37  1  0  0  0
 36 68  1  0  0  0
 36 69  1  0  0  0
 37 38  2  0  0  0
 37 42  1  0  0  0
 38 39  1  0  0  0
 38 70  1  0  0  0
 39 40  2  0  0  0
 39 71  1  0  0  0
 40 41  1  0  0  0
 40 72  1  0  0  0
 41 42  2  0  0  0
 41 43  1  0  0  0
 42 73  1  0  0  0
M  END
> <s_m_entry_id>
40565

> <s_m_entry_name>
dock_pv.21

> <s_m_Source_Path>
/home/csk/Desktop/cluster/DUD-E-result/tryb1

> <s_m_Source_File>
dock_pv.maegz

> <i_m_Source_File_Index>
21

> <chembl_id>
CHEMBL211357

> <chembl_pref_name>
None

> <i_lp_mmshare_version>
53161

> <r_lp_tautomer_probability>
0.99990000499975

> <s_lp_Force_Field>
OPLS_2005

> <r_lp_Energy>
17.550126

> <b_lp_Chiralities_Consistent>
1

> <s_lp_Variant>
CHEMBL2617_lig184-1

> <s_i_glide_gridfile>
glide-grid_2zec

> <i_i_glide_lignum>
212

> <i_i_glide_rotatable_bonds>
16

> <r_i_docking_score>
-7.02244097169876

> <r_i_glide_ligand_efficiency>
-0.16331258073718

> <r_i_glide_ligand_efficiency_sa>
-0.572148977874066

> <r_i_glide_ligand_efficiency_ln>
-1.47493085798932

> <r_i_glide_gscore>
-7.02244097169876

> <r_i_glide_lipo>
-3.50697719954494

> <r_i_glide_hbond>
-0.32

> <r_i_glide_metal>
0

> <r_i_glide_rewards>
-0.454201035287297

> <r_i_glide_evdw>
-49.7721862792969

> <r_i_glide_ecoul>
-5.3838939666748

> <r_i_glide_erotb>
0.610793189079863

> <r_i_glide_esite>
-0.055862516980313

> <r_i_glide_emodel>
-76.431987986348

> <r_i_glide_energy>
-55.1560802459717

> <r_i_glide_einternal>
7.46247386932373

> <i_i_glide_confnum>
5

> <i_i_glide_posenum>
40

> <r_i_glide_eff_state_penalty>
0

> <s_user_duplicate_titles>
CHEMBL2617_lig184

> <i_f3d_flags>
0

> <s_m_subgroup_title>
dock_pv

> <s_m_subgroupid>
dock_pv

> <b_m_subgroup_collapsed>
1

$$$$
CHEMBL2617_lig109
                    3D
 Schrodinger Suite 2021-1.
 57 60  0  0  1  0            999 V2000
   28.4921   77.4403   82.9745 C   0  0  0  0  0  0
   28.9927   75.2329   83.3831 N   0  0  0  0  0  0
   28.1249   76.2705   83.6169 C   0  0  0  0  0  0
   27.7593   78.7051   82.9100 C   0  0  0  0  0  0
   29.6839   77.0542   82.2442 C   0  0  0  0  0  0
   30.0082   75.6817   82.5448 C   0  0  0  0  0  0
   26.7529   79.0268   83.7815 N   0  0  0  0  0  0
   22.4876   78.4678   84.2550 C   0  0  0  0  0  0
   28.0874   79.4850   82.0167 O   0  0  0  0  0  0
   25.9576   80.2586   83.5634 C   0  0  0  0  0  0
   26.3506   78.3189   85.0096 C   0  0  0  0  0  0
   31.1635   75.0498   82.0194 C   0  0  0  0  0  0
   23.9353   78.9436   84.4507 C   0  0  0  0  0  0
   22.0255   77.9522   83.0315 C   0  0  0  0  0  0
   24.9084   77.7936   84.8000 C   0  0  0  0  0  0
   24.4937   79.8219   83.3019 C   0  0  0  0  0  0
   28.7817   73.8921   83.9287 C   0  0  0  0  0  0
   30.5149   77.7527   81.3517 C   0  0  0  0  0  0
   20.6838   77.5520   82.8794 C   0  0  0  0  0  0
   20.9501   77.1519   80.4170 N   0  0  0  0  0  0
   21.5959   78.5515   85.3315 C   0  0  0  0  0  0
   31.6173   77.1200   80.7982 C   0  0  0  0  0  0
   20.2741   78.1391   85.1918 C   0  0  0  0  0  0
   31.9291   75.8114   81.1311 C   0  0  0  0  0  0
   20.0911   77.0188   81.5731 C   0  0  0  0  0  0
   31.6661   73.6399   82.3046 C   0  0  0  0  0  0
   19.8244   77.6402   83.9753 C   0  0  0  0  0  0
   28.2981   72.9168   82.8441 C   0  0  0  0  0  0
   27.2383   76.0450   84.1881 H   0  0  0  0  0  0
   26.0113   80.8514   84.4772 H   0  0  0  0  0  0
   26.3529   80.9115   82.7835 H   0  0  0  0  0  0
   27.0845   77.6315   85.4222 H   0  0  0  0  0  0
   26.3236   79.0811   85.7912 H   0  0  0  0  0  0
   23.8953   79.5976   85.3254 H   0  0  0  0  0  0
   22.7078   77.8684   82.1981 H   0  0  0  0  0  0
   24.8987   77.0383   84.0172 H   0  0  0  0  0  0
   24.5981   77.3170   85.7302 H   0  0  0  0  0  0
   23.8982   80.7321   83.2169 H   0  0  0  0  0  0
   24.4493   79.3058   82.3423 H   0  0  0  0  0  0
   29.6873   73.5628   84.4350 H   0  0  0  0  0  0
   28.0173   73.9487   84.7037 H   0  0  0  0  0  0
   30.3029   78.7785   81.0892 H   0  0  0  0  0  0
   20.4015   77.1287   79.5589 H   0  0  0  0  0  0
   21.4036   78.0569   80.4097 H   0  0  0  0  0  0
   21.9211   78.9457   86.2831 H   0  0  0  0  0  0
   32.2503   77.6558   80.1054 H   0  0  0  0  0  0
   19.5864   78.2259   86.0170 H   0  0  0  0  0  0
   32.8085   75.3759   80.6763 H   0  0  0  0  0  0
   19.8280   75.9668   81.6930 H   0  0  0  0  0  0
   19.1725   77.5543   81.3456 H   0  0  0  0  0  0
   31.5913   73.3973   83.3631 H   0  0  0  0  0  0
   31.1178   72.8993   81.7252 H   0  0  0  0  0  0
   32.7181   73.5270   82.0368 H   0  0  0  0  0  0
   18.7945   77.3310   83.8844 H   0  0  0  0  0  0
   28.1499   71.9175   83.2547 H   0  0  0  0  0  0
   27.3503   73.2494   82.4197 H   0  0  0  0  0  0
   28.9940   72.8240   82.0164 H   0  0  0  0  0  0
  1  3  2  0  0  0
  1  4  1  0  0  0
  1  5  1  0  0  0
  2  3  1  0  0  0
  2 17  1  0  0  0
  2  6  1  0  0  0
  3 29  1  0  0  0
  4  7  1  0  0  0
  4  9  2  0  0  0
  5  6  2  0  0  0
  5 18  1  0  0  0
  6 12  1  0  0  0
  7 10  1  0  0  0
  7 11  1  0  0  0
  8 13  1  0  0  0
  8 14  2  0  0  0
  8 21  1  0  0  0
 10 16  1  0  0  0
 10 30  1  0  0  0
 10 31  1  0  0  0
 11 15  1  0  0  0
 11 32  1  0  0  0
 11 33  1  0  0  0
 12 24  2  0  0  0
 12 26  1  0  0  0
 13 15  1  0  0  0
 13 16  1  0  0  0
 13 34  1  0  0  0
 14 19  1  0  0  0
 14 35  1  0  0  0
 15 36  1  0  0  0
 15 37  1  0  0  0
 16 38  1  0  0  0
 16 39  1  0  0  0
 17 28  1  0  0  0
 17 40  1  0  0  0
 17 41  1  0  0  0
 18 22  2  0  0  0
 18 42  1  0  0  0
 19 25  1  0  0  0
 19 27  2  0  0  0
 20 25  1  0  0  0
 20 43  1  0  0  0
 20 44  1  0  0  0
 21 23  2  0  0  0
 21 45  1  0  0  0
 22 24  1  0  0  0
 22 46  1  0  0  0
 23 27  1  0  0  0
 23 47  1  0  0  0
 24 48  1  0  0  0
 25 49  1  0  0  0
 25 50  1  0  0  0
 26 51  1  0  0  0
 26 52  1  0  0  0
 26 53  1  0  0  0
 27 54  1  0  0  0
 28 55  1  0  0  0
 28 56  1  0  0  0
 28 57  1  0  0  0
M  END
> <s_m_entry_id>
40566

> <s_m_entry_name>
dock_pv.22

> <s_m_Source_Path>
/home/csk/Desktop/cluster/DUD-E-result/tryb1

> <s_m_Source_File>
dock_pv.maegz

> <i_m_Source_File_Index>
22

> <chembl_id>
CHEMBL370284

> <chembl_pref_name>
None

> <i_lp_mmshare_version>
53161

> <r_lp_tautomer_probability>
1

> <s_lp_Force_Field>
OPLS_2005

> <r_lp_Energy>
44.326395

> <b_lp_Chiralities_Consistent>
1

> <s_lp_Variant>
CHEMBL2617_lig109-1

> <s_i_glide_gridfile>
glide-grid_2zec

> <i_i_glide_lignum>
136

> <i_i_glide_rotatable_bonds>
5

> <r_i_docking_score>
-6.9721909182614

> <r_i_glide_ligand_efficiency>
-0.249006818509336

> <r_i_glide_ligand_efficiency_sa>
-0.756131358167432

> <r_i_glide_ligand_efficiency_ln>
-1.6093863763554

> <r_i_glide_gscore>
-6.9721909182614

> <r_i_glide_lipo>
-3.47465597348308

> <r_i_glide_hbond>
-0.223183928320114

> <r_i_glide_metal>
0

> <r_i_glide_rewards>
-1.18290259420729

> <r_i_glide_evdw>
-40.8329544067383

> <r_i_glide_ecoul>
-3.07624435424805

> <r_i_glide_erotb>
0.411635951223198

> <r_i_glide_esite>
0

> <r_i_glide_emodel>
-61.6078519395827

> <r_i_glide_energy>
-43.9091987609863

> <r_i_glide_einternal>
1.11105930805206

> <i_i_glide_confnum>
4

> <i_i_glide_posenum>
337

> <r_i_glide_eff_state_penalty>
0

> <s_user_duplicate_titles>
CHEMBL2617_lig109,319302

> <i_f3d_flags>
0

> <s_m_subgroup_title>
dock_pv

> <s_m_subgroupid>
dock_pv

> <b_m_subgroup_collapsed>
1

$$$$
CHEMBL2617_lig92
                    3D
 Schrodinger Suite 2021-1.
 56 58  0  0  1  0            999 V2000
   26.5692   79.7326   84.8655 N   0  0  0  0  0  0
   28.8178   78.0458   84.8397 N   0  0  0  0  0  0
   26.7413   78.8762   83.7841 C   0  0  0  0  0  0
   28.5749   78.8932   85.8870 C   0  0  0  0  0  0
   27.9615   78.0116   83.8791 C   0  0  0  0  0  0
   27.4890   79.7255   85.9221 C   0  0  0  0  0  0
   25.3991   80.6549   84.7988 C   0  0  0  0  0  0
   24.0906   79.9463   85.1849 C   0  0  0  0  0  0
   28.1498   77.1335   82.8181 N   0  0  0  0  0  0
   23.4108   79.3918   84.1607 N   0  0  0  0  0  0
   25.9691   78.8428   82.8163 O   0  0  0  0  0  0
   30.9961   73.0138   83.4660 N   0  0  1  0  0  0
   29.7884   78.8205   87.1743 Cl  0  0  0  0  0  0
   23.7402   79.9430   86.3641 O   0  0  0  0  0  0
   22.2058   78.6685   84.1585 C   0  0  0  0  0  0
   29.3587   76.3704   82.5157 C   0  0  0  0  0  0
   29.4927   75.0071   83.2287 C   0  0  2  0  0  0
   21.7466   78.2479   82.9058 C   0  0  0  0  0  0
   27.2014   80.6745   87.0870 C   0  0  0  0  0  0
   20.5687   77.4940   82.7841 C   0  0  0  0  0  0
   20.9499   77.1471   80.3345 N   0  0  0  0  0  0
   30.7764   74.2754   82.7578 C   0  0  0  0  0  0
   20.3017   77.5822   85.1882 C   0  0  0  0  0  0
   29.8821   72.0870   83.2638 C   0  0  0  0  0  0
   21.4678   78.3341   85.3044 C   0  0  0  0  0  0
   20.0218   77.0120   81.4399 C   0  0  0  0  0  0
   19.8526   77.1686   83.9378 C   0  0  0  0  0  0
   28.2733   74.0707   83.0728 C   0  0  0  0  0  0
   28.5517   72.7071   83.7309 C   0  0  0  0  0  0
   25.3041   81.0489   83.7857 H   0  0  0  0  0  0
   25.5283   81.5649   85.3837 H   0  0  0  0  0  0
   27.2860   76.7727   82.4167 H   0  0  0  0  0  0
   23.8662   79.4445   83.2592 H   0  0  0  0  0  0
   31.8512   72.5834   83.1394 H   0  0  0  0  0  0
   29.3592   76.2030   81.4377 H   0  0  0  0  0  0
   30.2385   76.9835   82.7212 H   0  0  0  0  0  0
   29.5957   75.1656   84.3043 H   0  0  0  0  0  0
   22.3141   78.5042   82.0199 H   0  0  0  0  0  0
   27.9025   80.5608   87.9126 H   0  0  0  0  0  0
   27.2580   81.7137   86.7590 H   0  0  0  0  0  0
   26.2053   80.4970   87.4946 H   0  0  0  0  0  0
   20.4341   77.1472   79.4526 H   0  0  0  0  0  0
   21.4265   78.0424   80.3563 H   0  0  0  0  0  0
   30.7591   74.1167   81.6776 H   0  0  0  0  0  0
   31.6429   74.9143   82.9420 H   0  0  0  0  0  0
   19.7494   77.3132   86.0720 H   0  0  0  0  0  0
   30.0830   71.1671   83.8144 H   0  0  0  0  0  0
   29.8267   71.8206   82.2071 H   0  0  0  0  0  0
   21.7802   78.6298   86.2935 H   0  0  0  0  0  0
   19.1102   77.5520   81.1946 H   0  0  0  0  0  0
   19.7518   75.9577   81.5267 H   0  0  0  0  0  0
   18.9535   76.5761   83.8648 H   0  0  0  0  0  0
   27.3722   74.5361   83.4742 H   0  0  0  0  0  0
   28.0660   73.9181   82.0152 H   0  0  0  0  0  0
   28.5600   72.7980   84.8165 H   0  0  0  0  0  0
   27.7497   72.0096   83.4993 H   0  0  0  0  0  0
  1  3  1  0  0  0
  1  6  1  0  0  0
  1  7  1  0  0  0
  2  4  1  0  0  0
  2  5  2  0  0  0
  3  5  1  0  0  0
  3 11  2  0  0  0
  4  6  2  0  0  0
  4 13  1  0  0  0
  5  9  1  0  0  0
  6 19  1  0  0  0
  7  8  1  0  0  0
  7 30  1  0  0  0
  7 31  1  0  0  0
  8 10  1  0  0  0
  8 14  2  0  0  0
  9 16  1  0  0  0
  9 32  1  0  0  0
 10 15  1  0  0  0
 10 33  1  0  0  0
 12 22  1  0  0  0
 12 24  1  0  0  0
 12 34  1  0  0  0
 15 18  2  0  0  0
 15 25  1  0  0  0
 16 17  1  0  0  0
 16 35  1  0  0  0
 16 36  1  0  0  0
 17 22  1  0  0  0
 17 28  1  0  0  0
 17 37  1  0  0  0
 18 20  1  0  0  0
 18 38  1  0  0  0
 19 39  1  0  0  0
 19 40  1  0  0  0
 19 41  1  0  0  0
 20 26  1  0  0  0
 20 27  2  0  0  0
 21 26  1  0  0  0
 21 42  1  0  0  0
 21 43  1  0  0  0
 22 44  1  0  0  0
 22 45  1  0  0  0
 23 25  2  0  0  0
 23 27  1  0  0  0
 23 46  1  0  0  0
 24 29  1  0  0  0
 24 47  1  0  0  0
 24 48  1  0  0  0
 25 49  1  0  0  0
 26 50  1  0  0  0
 26 51  1  0  0  0
 27 52  1  0  0  0
 28 29  1  0  0  0
 28 53  1  0  0  0
 28 54  1  0  0  0
 29 55  1  0  0  0
 29 56  1  0  0  0
M  END
> <s_m_entry_id>
40567

> <s_m_entry_name>
dock_pv.23

> <s_m_Source_Path>
/home/csk/Desktop/cluster/DUD-E-result/tryb1

> <s_m_Source_File>
dock_pv.maegz

> <i_m_Source_File_Index>
23

> <chembl_id>
CHEMBL184815

> <chembl_pref_name>
None

> <i_lp_mmshare_version>
53161

> <r_lp_tautomer_probability>
1

> <s_lp_Force_Field>
OPLS_2005

> <r_lp_Energy>
37.899285

> <b_lp_Chiralities_Consistent>
1

> <s_lp_Variant>
CHEMBL2617_lig92-1

> <s_i_glide_gridfile>
glide-grid_2zec

> <i_i_glide_lignum>
117

> <i_i_glide_rotatable_bonds>
8

> <r_i_docking_score>
-6.97042400374693

> <r_i_glide_ligand_efficiency>
-0.240359448405066

> <r_i_glide_ligand_efficiency_sa>
-0.738460376718583

> <r_i_glide_ligand_efficiency_ln>
-1.59605034215612

> <r_i_glide_gscore>
-6.97042400374693

> <r_i_glide_lipo>
-3.28409178895104

> <r_i_glide_hbond>
-0.621737608000063

> <r_i_glide_metal>
0

> <r_i_glide_rewards>
-0.753850496166198

> <r_i_glide_evdw>
-42.1674308776855

> <r_i_glide_ecoul>
-6.60861110687256

> <r_i_glide_erotb>
0.788919099285536

> <r_i_glide_esite>
0

> <r_i_glide_emodel>
-66.5371590592391

> <r_i_glide_energy>
-48.7760419845581

> <r_i_glide_einternal>
5.82540082931519

> <i_i_glide_confnum>
8

> <i_i_glide_posenum>
58

> <r_i_glide_eff_state_penalty>
0

> <s_user_duplicate_titles>
CHEMBL2617_lig92,308716

> <i_f3d_flags>
0

> <s_m_subgroup_title>
dock_pv

> <s_m_subgroupid>
dock_pv

> <b_m_subgroup_collapsed>
1

$$$$
CHEMBL2617_lig110
                    3D
 Schrodinger Suite 2021-1.
 51 54  0  0  1  0            999 V2000
   28.4324   77.0557   84.5723 C   0  0  0  0  0  0
   27.7439   77.9036   83.6178 C   0  0  0  0  0  0
   28.8909   75.6869   84.4344 C   0  0  0  0  0  0
   29.0036   77.4943   85.7633 C   0  0  0  0  0  0
   26.9485   78.9188   84.0727 N   0  0  0  0  0  0
   29.6446   76.4704   86.4055 N   0  0  0  0  0  0
   29.6071   75.3412   85.6248 C   0  0  0  0  0  0
   22.6111   78.6495   84.0937 C   0  0  0  0  0  0
   27.9157   77.6856   82.4171 O   0  0  0  0  0  0
   28.7547   74.6996   83.4392 C   0  0  0  0  0  0
   26.3053   78.9532   85.4029 C   0  0  0  0  0  0
   26.2868   79.8204   83.1073 C   0  0  0  0  0  0
   24.0535   79.1687   84.2036 C   0  0  0  0  0  0
   22.0946   78.0700   82.9238 C   0  0  0  0  0  0
   24.8784   78.3817   85.2505 C   0  0  0  0  0  0
   24.8451   79.3025   82.8730 C   0  0  0  0  0  0
   30.1508   74.0716   85.8416 C   0  0  0  0  0  0
   29.3115   73.4329   83.6430 C   0  0  0  0  0  0
   20.7587   77.6353   82.8619 C   0  0  0  0  0  0
   29.9877   73.1344   84.8241 C   0  0  0  0  0  0
   20.9500   77.1518   80.4166 N   0  0  0  0  0  0
   21.7707   78.7756   85.2070 C   0  0  0  0  0  0
   20.4516   78.3351   85.1591 C   0  0  0  0  0  0
   20.1262   77.0450   81.6017 C   0  0  0  0  0  0
   19.9526   77.7581   83.9957 C   0  0  0  0  0  0
   29.1921   72.3718   82.5651 C   0  0  0  0  0  0
   29.0061   78.4747   86.2193 H   0  0  0  0  0  0
   30.1023   76.5851   87.2982 H   0  0  0  0  0  0
   28.2215   74.9230   82.5260 H   0  0  0  0  0  0
   26.8627   78.4977   86.2130 H   0  0  0  0  0  0
   26.2542   80.0029   85.6983 H   0  0  0  0  0  0
   26.2558   80.8098   83.5652 H   0  0  0  0  0  0
   26.8778   79.9749   82.2030 H   0  0  0  0  0  0
   23.9187   80.1843   84.5843 H   0  0  0  0  0  0
   22.7241   77.9632   82.0534 H   0  0  0  0  0  0
   24.9318   77.3234   84.9919 H   0  0  0  0  0  0
   24.4071   78.4588   86.2308 H   0  0  0  0  0  0
   24.3454   80.0151   82.2168 H   0  0  0  0  0  0
   24.9042   78.3521   82.3437 H   0  0  0  0  0  0
   30.6905   73.8244   86.7438 H   0  0  0  0  0  0
   30.4092   72.1493   84.9617 H   0  0  0  0  0  0
   20.3744   77.1369   79.5747 H   0  0  0  0  0  0
   21.4249   78.0438   80.3876 H   0  0  0  0  0  0
   22.1355   79.2312   86.1162 H   0  0  0  0  0  0
   19.8093   78.4550   86.0166 H   0  0  0  0  0  0
   19.8824   75.9937   81.7645 H   0  0  0  0  0  0
   19.1925   77.5617   81.3888 H   0  0  0  0  0  0
   18.9290   77.4208   83.9754 H   0  0  0  0  0  0
   29.7543   71.4682   82.8050 H   0  0  0  0  0  0
   29.5723   72.7523   81.6173 H   0  0  0  0  0  0
   28.1499   72.0997   82.4165 H   0  0  0  0  0  0
  1  2  1  0  0  0
  1  3  1  0  0  0
  1  4  2  0  0  0
  2  5  1  0  0  0
  2  9  2  0  0  0
  3  7  2  0  0  0
  3 10  1  0  0  0
  4  6  1  0  0  0
  4 27  1  0  0  0
  5 11  1  0  0  0
  5 12  1  0  0  0
  6  7  1  0  0  0
  6 28  1  0  0  0
  7 17  1  0  0  0
  8 13  1  0  0  0
  8 14  2  0  0  0
  8 22  1  0  0  0
 10 18  2  0  0  0
 10 29  1  0  0  0
 11 15  1  0  0  0
 11 30  1  0  0  0
 11 31  1  0  0  0
 12 16  1  0  0  0
 12 32  1  0  0  0
 12 33  1  0  0  0
 13 16  1  0  0  0
 13 15  1  0  0  0
 13 34  1  0  0  0
 14 19  1  0  0  0
 14 35  1  0  0  0
 15 36  1  0  0  0
 15 37  1  0  0  0
 16 38  1  0  0  0
 16 39  1  0  0  0
 17 20  2  0  0  0
 17 40  1  0  0  0
 18 26  1  0  0  0
 18 20  1  0  0  0
 19 24  1  0  0  0
 19 25  2  0  0  0
 20 41  1  0  0  0
 21 24  1  0  0  0
 21 42  1  0  0  0
 21 43  1  0  0  0
 22 23  2  0  0  0
 22 44  1  0  0  0
 23 25  1  0  0  0
 23 45  1  0  0  0
 24 46  1  0  0  0
 24 47  1  0  0  0
 25 48  1  0  0  0
 26 49  1  0  0  0
 26 50  1  0  0  0
 26 51  1  0  0  0
M  END
> <s_m_entry_id>
40568

> <s_m_entry_name>
dock_pv.24

> <s_m_Source_Path>
/home/csk/Desktop/cluster/DUD-E-result/tryb1

> <s_m_Source_File>
dock_pv.maegz

> <i_m_Source_File_Index>
24

> <chembl_id>
CHEMBL365148

> <chembl_pref_name>
None

> <i_lp_mmshare_version>
53161

> <r_lp_tautomer_probability>
1

> <s_lp_Force_Field>
OPLS_2005

> <r_lp_Energy>
36.358259

> <b_lp_Chiralities_Consistent>
1

> <s_lp_Variant>
CHEMBL2617_lig110-1

> <s_i_glide_gridfile>
glide-grid_2zec

> <i_i_glide_lignum>
137

> <i_i_glide_rotatable_bonds>
4

> <r_i_docking_score>
-6.968417095595

> <r_i_glide_ligand_efficiency>
-0.268016042138269

> <r_i_glide_ligand_efficiency_sa>
-0.793996470242421

> <r_i_glide_ligand_efficiency_ln>
-1.63650988965902

> <r_i_glide_gscore>
-6.968417095595

> <r_i_glide_lipo>
-3.27922278813643

> <r_i_glide_hbond>
-0.504163208166003

> <r_i_glide_metal>
0

> <r_i_glide_rewards>
-1.08499025152639

> <r_i_glide_evdw>
-38.4112243652344

> <r_i_glide_ecoul>
-4.34828042984009

> <r_i_glide_erotb>
0.472762434971561

> <r_i_glide_esite>
0

> <r_i_glide_emodel>
-57.6742999002958

> <r_i_glide_energy>
-42.7595047950745

> <r_i_glide_einternal>
5.62021398544312

> <i_i_glide_confnum>
7

> <i_i_glide_posenum>
120

> <r_i_glide_eff_state_penalty>
0

> <s_user_duplicate_titles>
CHEMBL2617_lig110

> <i_f3d_flags>
0

> <s_m_subgroup_title>
dock_pv

> <s_m_subgroupid>
dock_pv

> <b_m_subgroup_collapsed>
1

$$$$
CHEMBL2617_lig67
                    3D
 Schrodinger Suite 2021-1.
 67 70  0  0  1  0            999 V2000
   23.1635   78.4115   86.6451 C   0  0  0  0  0  0
   20.4057   77.1523   81.6369 C   0  0  0  0  0  0
   27.5640   73.6926   89.8865 C   0  0  0  0  0  0
   24.5025   78.5372   86.6022 N   0  0  0  0  0  0
   22.4502   78.1753   85.3261 C   0  0  0  0  0  0
   21.1119   77.5621   82.8899 C   0  0  0  0  0  0
   26.9506   74.9945   89.4288 C   0  0  0  0  0  0
   19.3526   76.4703   81.6973 N   0  0  0  0  0  0
   31.9326   73.2087   88.6984 C   0  0  0  0  0  0
   22.5500   78.4337   87.7114 O   0  0  0  0  0  0
   26.8608   72.7521   90.2674 O   0  0  0  0  0  0
   21.0892   77.8524   85.3155 C   0  0  0  0  0  0
   20.4354   77.5517   84.1219 C   0  0  0  0  0  0
   23.1245   78.2423   84.0989 C   0  0  0  0  0  0
   22.4641   77.9432   82.9106 C   0  0  0  0  0  0
   28.9012   73.6305   89.7617 N   0  0  0  0  0  0
   31.5743   74.6935   88.5400 C   0  0  0  0  0  0
   32.9992   72.7618   87.6902 C   0  0  0  0  0  0
   27.6403   76.2077   89.5648 C   0  0  0  0  0  0
   25.6909   74.9927   88.8187 C   0  0  0  0  0  0
   20.9500   77.6130   80.4635 N   0  0  0  0  0  0
   25.3699   78.6793   87.7763 C   0  0  0  0  0  0
   25.8734   77.3736   88.3972 C   0  0  0  0  0  0
   27.1071   77.3836   89.0508 C   0  0  0  0  0  0
   25.1613   76.1706   88.2974 C   0  0  0  0  0  0
   29.7373   72.4456   89.9117 C   0  0  0  0  0  0
   30.7130   72.2439   88.7310 C   0  0  0  0  0  0
   30.6628   75.1175   87.5633 C   0  0  0  0  0  0
   34.2588   72.3523   88.1430 C   0  0  0  0  0  0
   32.7244   72.7519   86.3163 C   0  0  0  0  0  0
   32.1582   75.6374   89.3921 C   0  0  0  0  0  0
   35.2356   71.9523   87.2342 C   0  0  0  0  0  0
   33.7000   72.3519   85.4078 C   0  0  0  0  0  0
   31.8404   76.9868   89.2678 C   0  0  0  0  0  0
   30.3479   76.4676   87.4361 C   0  0  0  0  0  0
   34.9502   71.9527   85.8719 C   0  0  0  0  0  0
   30.9387   77.3962   88.2887 C   0  0  0  0  0  0
   24.9628   78.4436   85.7116 H   0  0  0  0  0  0
   18.9642   76.3307   80.7744 H   0  0  0  0  0  0
   32.3811   73.1075   89.6888 H   0  0  0  0  0  0
   20.5309   77.8016   86.2394 H   0  0  0  0  0  0
   19.3902   77.2771   84.1699 H   0  0  0  0  0  0
   24.1719   78.4967   84.0358 H   0  0  0  0  0  0
   23.0574   77.9646   82.0169 H   0  0  0  0  0  0
   29.3873   74.4752   89.4947 H   0  0  0  0  0  0
   28.6070   76.2510   90.0470 H   0  0  0  0  0  0
   25.1293   74.0753   88.7125 H   0  0  0  0  0  0
   20.4369   77.5505   79.5846 H   0  0  0  0  0  0
   21.8914   77.9899   80.4241 H   0  0  0  0  0  0
   24.8729   79.2529   88.5622 H   0  0  0  0  0  0
   26.2274   79.2759   87.4605 H   0  0  0  0  0  0
   27.6711   78.3000   89.1447 H   0  0  0  0  0  0
   24.2006   76.1323   87.8083 H   0  0  0  0  0  0
   29.1324   71.5520   90.0173 H   0  0  0  0  0  0
   30.2935   72.5427   90.8453 H   0  0  0  0  0  0
   30.1642   72.2723   87.7882 H   0  0  0  0  0  0
   31.0925   71.2226   88.7937 H   0  0  0  0  0  0
   30.1900   74.4077   86.9029 H   0  0  0  0  0  0
   34.4872   72.3456   89.1987 H   0  0  0  0  0  0
   31.7559   73.0533   85.9470 H   0  0  0  0  0  0
   32.8626   75.3290   90.1510 H   0  0  0  0  0  0
   36.2095   71.6472   87.5850 H   0  0  0  0  0  0
   33.4867   72.3462   84.3483 H   0  0  0  0  0  0
   32.2954   77.7145   89.9241 H   0  0  0  0  0  0
   29.6454   76.7916   86.6827 H   0  0  0  0  0  0
   35.7067   71.6467   85.1661 H   0  0  0  0  0  0
   30.6954   78.4446   88.1890 H   0  0  0  0  0  0
  1  4  1  0  0  0
  1  5  1  0  0  0
  1 10  2  0  0  0
  2  6  1  0  0  0
  2  8  2  0  0  0
  2 21  1  0  0  0
  3  7  1  0  0  0
  3 11  2  0  0  0
  3 16  1  0  0  0
  4 22  1  0  0  0
  4 38  1  0  0  0
  5 12  1  0  0  0
  5 14  2  0  0  0
  6 15  2  0  0  0
  6 13  1  0  0  0
  7 20  1  0  0  0
  7 19  2  0  0  0
  8 39  1  0  0  0
  9 27  1  0  0  0
  9 17  1  0  0  0
  9 18  1  0  0  0
  9 40  1  0  0  0
 12 13  2  0  0  0
 12 41  1  0  0  0
 13 42  1  0  0  0
 14 15  1  0  0  0
 14 43  1  0  0  0
 15 44  1  0  0  0
 16 26  1  0  0  0
 16 45  1  0  0  0
 17 28  1  0  0  0
 17 31  2  0  0  0
 18 29  2  0  0  0
 18 30  1  0  0  0
 19 24  1  0  0  0
 19 46  1  0  0  0
 20 25  2  0  0  0
 20 47  1  0  0  0
 21 48  1  0  0  0
 21 49  1  0  0  0
 22 23  1  0  0  0
 22 50  1  0  0  0
 22 51  1  0  0  0
 23 24  2  0  0  0
 23 25  1  0  0  0
 24 52  1  0  0  0
 25 53  1  0  0  0
 26 27  1  0  0  0
 26 54  1  0  0  0
 26 55  1  0  0  0
 27 56  1  0  0  0
 27 57  1  0  0  0
 28 35  2  0  0  0
 28 58  1  0  0  0
 29 32  1  0  0  0
 29 59  1  0  0  0
 30 33  2  0  0  0
 30 60  1  0  0  0
 31 34  1  0  0  0
 31 61  1  0  0  0
 32 36  2  0  0  0
 32 62  1  0  0  0
 33 36  1  0  0  0
 33 63  1  0  0  0
 34 37  2  0  0  0
 34 64  1  0  0  0
 35 37  1  0  0  0
 35 65  1  0  0  0
 36 66  1  0  0  0
 37 67  1  0  0  0
M  END
> <s_m_entry_id>
40569

> <s_m_entry_name>
dock_pv.25

> <s_m_Source_Path>
/home/csk/Desktop/cluster/DUD-E-result/tryb1

> <s_m_Source_File>
dock_pv.maegz

> <i_m_Source_File_Index>
25

> <chembl_id>
CHEMBL309262

> <chembl_pref_name>
None

> <i_lp_mmshare_version>
53161

> <r_lp_tautomer_probability>
1

> <s_lp_Force_Field>
OPLS_2005

> <r_lp_Energy>
22.325085

> <b_lp_Chiralities_Consistent>
1

> <s_lp_Variant>
CHEMBL2617_lig67-1

> <s_i_glide_gridfile>
glide-grid_2zec

> <i_i_glide_lignum>
90

> <i_i_glide_rotatable_bonds>
12

> <r_i_docking_score>
-6.95307328280145

> <r_i_glide_ligand_efficiency>
-0.187920899535174

> <r_i_glide_ligand_efficiency_sa>
-0.62619412705836

> <r_i_glide_ligand_efficiency_ln>
-1.50795859187484

> <r_i_glide_gscore>
-6.95307328280145

> <r_i_glide_lipo>
-2.59197047102186

> <r_i_glide_hbond>
-0.662397525694117

> <r_i_glide_metal>
0

> <r_i_glide_rewards>
-0.779020356090805

> <r_i_glide_evdw>
-48.483959197998

> <r_i_glide_ecoul>
-9.1950855255127

> <r_i_glide_erotb>
0.930133048727178

> <r_i_glide_esite>
-0.0463571899950353

> <r_i_glide_emodel>
-79.9448171825307

> <r_i_glide_energy>
-57.6790447235107

> <r_i_glide_einternal>
4.65761852264404

> <i_i_glide_confnum>
1

> <i_i_glide_posenum>
186

> <r_i_glide_eff_state_penalty>
0

> <s_user_duplicate_titles>
CHEMBL2617_lig67,119976

> <i_f3d_flags>
0

> <s_m_subgroup_title>
dock_pv

> <s_m_subgroupid>
dock_pv

> <b_m_subgroup_collapsed>
1

$$$$
CHEMBL2617_lig11
                    3D
 Schrodinger Suite 2021-1.
 63 66  0  0  1  0            999 V2000
   28.3484   76.3640   84.1065 C   0  0  0  0  0  0
   29.0420   74.1875   84.2461 N   0  0  0  0  0  0
   28.4130   75.1404   83.4735 C   0  0  0  0  0  0
   27.7500   77.5369   83.5130 C   0  0  0  0  0  0
   29.0302   76.1653   85.3592 C   0  0  0  0  0  0
   29.4364   74.7857   85.4488 C   0  0  0  0  0  0
   26.8432   78.2520   84.2399 N   0  0  0  0  0  0
   22.5011   78.2845   84.2785 C   0  0  0  0  0  0
   28.0945   77.8542   82.3727 O   0  0  0  0  0  0
   26.2309   79.4672   83.6635 C   0  0  0  0  0  0
   26.2009   77.7783   85.4831 C   0  0  0  0  0  0
   30.0994   74.2837   86.5967 C   0  0  0  0  0  0
   23.9841   78.6020   84.5128 C   0  0  0  0  0  0
   22.0082   77.8477   83.0404 C   0  0  0  0  0  0
   24.7366   77.4146   85.1505 C   0  0  0  0  0  0
   24.7674   79.1320   83.2855 C   0  0  0  0  0  0
   29.1988   72.7852   83.8319 C   0  0  0  0  0  0
   29.3393   77.0356   86.4144 C   0  0  0  0  0  0
   20.6437   77.5529   82.8694 C   0  0  0  0  0  0
   20.9498   77.1519   80.4166 N   0  0  0  0  0  0
   21.6091   78.4196   85.3499 C   0  0  0  0  0  0
   29.9979   76.5444   87.5331 C   0  0  0  0  0  0
   20.2563   78.1255   85.1902 C   0  0  0  0  0  0
   30.3572   75.2087   87.6146 C   0  0  0  0  0  0
   20.0397   77.0935   81.5419 C   0  0  0  0  0  0
   30.5732   72.8586   86.8441 C   0  0  0  0  0  0
   19.7808   77.6916   83.9575 C   0  0  0  0  0  0
   29.7240   72.6143   82.3866 C   0  0  0  0  0  0
   31.0481   73.3283   82.0499 C   0  0  0  0  0  0
   32.2495   72.8387   82.8747 C   0  0  0  0  0  0
   28.0209   74.8614   82.5040 H   0  0  0  0  0  0
   26.2442   80.2295   84.4453 H   0  0  0  0  0  0
   26.8161   79.9039   82.8521 H   0  0  0  0  0  0
   26.7303   76.9825   85.9993 H   0  0  0  0  0  0
   26.2232   78.6177   86.1805 H   0  0  0  0  0  0
   23.9680   79.4160   85.2424 H   0  0  0  0  0  0
   22.6870   77.7230   82.2109 H   0  0  0  0  0  0
   24.7159   76.5465   84.4893 H   0  0  0  0  0  0
   24.2556   77.1302   86.0882 H   0  0  0  0  0  0
   24.2997   80.0457   82.9122 H   0  0  0  0  0  0
   24.7786   78.4065   82.4703 H   0  0  0  0  0  0
   29.8887   72.2790   84.4971 H   0  0  0  0  0  0
   28.2320   72.2935   83.9515 H   0  0  0  0  0  0
   29.0621   78.0788   86.3639 H   0  0  0  0  0  0
   20.4255   77.1514   79.5398 H   0  0  0  0  0  0
   21.4583   78.0277   80.4099 H   0  0  0  0  0  0
   21.9609   78.7566   86.3147 H   0  0  0  0  0  0
   30.2290   77.2118   88.3534 H   0  0  0  0  0  0
   19.5717   78.2515   86.0170 H   0  0  0  0  0  0
   30.8677   74.8849   88.5106 H   0  0  0  0  0  0
   19.6834   76.0662   81.6383 H   0  0  0  0  0  0
   19.1792   77.7176   81.3003 H   0  0  0  0  0  0
   29.7506   72.1557   86.7208 H   0  0  0  0  0  0
   31.3736   72.5994   86.1491 H   0  0  0  0  0  0
   30.9644   72.7167   87.8535 H   0  0  0  0  0  0
   18.7298   77.4764   83.8516 H   0  0  0  0  0  0
   29.8518   71.5498   82.1931 H   0  0  0  0  0  0
   28.9553   72.9267   81.6811 H   0  0  0  0  0  0
   31.2652   73.1747   80.9923 H   0  0  0  0  0  0
   30.9373   74.4072   82.1745 H   0  0  0  0  0  0
   33.1718   73.3062   82.5282 H   0  0  0  0  0  0
   32.1359   73.0842   83.9299 H   0  0  0  0  0  0
   32.3769   71.7564   82.7956 H   0  0  0  0  0  0
  1  3  2  0  0  0
  1  4  1  0  0  0
  1  5  1  0  0  0
  2  3  1  0  0  0
  2 17  1  0  0  0
  2  6  1  0  0  0
  3 31  1  0  0  0
  4  7  1  0  0  0
  4  9  2  0  0  0
  5  6  2  0  0  0
  5 18  1  0  0  0
  6 12  1  0  0  0
  7 10  1  0  0  0
  7 11  1  0  0  0
  8 13  1  0  0  0
  8 14  2  0  0  0
  8 21  1  0  0  0
 10 16  1  0  0  0
 10 32  1  0  0  0
 10 33  1  0  0  0
 11 15  1  0  0  0
 11 34  1  0  0  0
 11 35  1  0  0  0
 12 24  2  0  0  0
 12 26  1  0  0  0
 13 15  1  0  0  0
 13 16  1  0  0  0
 13 36  1  0  0  0
 14 19  1  0  0  0
 14 37  1  0  0  0
 15 38  1  0  0  0
 15 39  1  0  0  0
 16 40  1  0  0  0
 16 41  1  0  0  0
 17 28  1  0  0  0
 17 42  1  0  0  0
 17 43  1  0  0  0
 18 22  2  0  0  0
 18 44  1  0  0  0
 19 25  1  0  0  0
 19 27  2  0  0  0
 20 25  1  0  0  0
 20 45  1  0  0  0
 20 46  1  0  0  0
 21 23  2  0  0  0
 21 47  1  0  0  0
 22 24  1  0  0  0
 22 48  1  0  0  0
 23 27  1  0  0  0
 23 49  1  0  0  0
 24 50  1  0  0  0
 25 51  1  0  0  0
 25 52  1  0  0  0
 26 53  1  0  0  0
 26 54  1  0  0  0
 26 55  1  0  0  0
 27 56  1  0  0  0
 28 29  1  0  0  0
 28 57  1  0  0  0
 28 58  1  0  0  0
 29 30  1  0  0  0
 29 59  1  0  0  0
 29 60  1  0  0  0
 30 61  1  0  0  0
 30 62  1  0  0  0
 30 63  1  0  0  0
M  END
> <s_m_entry_id>
40570

> <s_m_entry_name>
dock_pv.26

> <s_m_Source_Path>
/home/csk/Desktop/cluster/DUD-E-result/tryb1

> <s_m_Source_File>
dock_pv.maegz

> <i_m_Source_File_Index>
26

> <chembl_id>
CHEMBL370463

> <chembl_pref_name>
None

> <i_lp_mmshare_version>
53161

> <r_lp_tautomer_probability>
1

> <s_lp_Force_Field>
OPLS_2005

> <r_lp_Energy>
43.543995

> <b_lp_Chiralities_Consistent>
1

> <s_lp_Variant>
CHEMBL2617_lig11-1

> <s_i_glide_gridfile>
glide-grid_2zec

> <i_i_glide_lignum>
12

> <i_i_glide_rotatable_bonds>
7

> <r_i_docking_score>
-6.94680251879763

> <r_i_glide_ligand_efficiency>
-0.231560083959921

> <r_i_glide_ligand_efficiency_sa>
-0.719511019145939

> <r_i_glide_ligand_efficiency_ln>
-1.57838922374668

> <r_i_glide_gscore>
-6.94680251879763

> <r_i_glide_lipo>
-3.56891739845563

> <r_i_glide_hbond>
-0.479873663293909

> <r_i_glide_metal>
0

> <r_i_glide_rewards>
-0.815060888795219

> <r_i_glide_evdw>
-42.022705078125

> <r_i_glide_ecoul>
-3.89225435256958

> <r_i_glide_erotb>
0.602805620910047

> <r_i_glide_esite>
-0.000782782371236045

> <r_i_glide_emodel>
-60.6299578259158

> <r_i_glide_energy>
-45.9149594306946

> <r_i_glide_einternal>
9.69931602478027

> <i_i_glide_confnum>
29

> <i_i_glide_posenum>
312

> <r_i_glide_eff_state_penalty>
0

> <s_user_duplicate_titles>
CHEMBL2617_lig11,319416

> <i_f3d_flags>
0

> <s_m_subgroup_title>
dock_pv

> <s_m_subgroupid>
dock_pv

> <b_m_subgroup_collapsed>
1

$$$$
CHEMBL2617_lig169
                    3D
 Schrodinger Suite 2021-1.
 86 90  0  0  1  0            999 V2000
   29.7612   72.8887   82.8152 C   0  0  0  0  0  0
   30.7734   73.7578   82.4169 C   0  0  0  0  0  0
   30.5433   75.1317   82.4156 C   0  0  0  0  0  0
   29.3006   75.6384   82.8121 C   0  0  0  0  0  0
   28.2933   74.7562   83.2233 C   0  0  0  0  0  0
   28.5254   73.3812   83.2203 C   0  0  0  0  0  0
   29.0942   77.1547   82.7639 C   0  0  0  0  0  0
   27.7503   77.5569   83.0598 O   0  0  0  0  0  0
   27.4836   78.4722   84.0164 C   0  0  0  0  0  0
   26.1133   78.6956   84.0744 N   0  0  0  0  0  0
   28.3346   79.0140   84.7238 O   0  0  0  0  0  0
   25.5692   79.7033   85.0062 C   0  0  2  0  0  0
   24.0816   79.3749   85.1640 C   0  0  0  0  0  0
   23.6796   78.3848   86.1691 C   0  0  0  0  0  0
   23.2223   79.9754   84.5139 O   0  0  0  0  0  0
   22.4614   78.3705   86.6774 N   0  0  0  0  0  0
   22.4906   77.3236   87.5920 O   0  0  0  0  0  0
   23.7516   76.8409   87.5218 C   0  0  0  0  0  0
   24.4982   77.4587   86.6443 N   0  0  0  0  0  0
   25.8434   81.1740   84.5518 C   0  0  0  0  0  0
   25.4991   81.5537   83.0896 C   0  0  0  0  0  0
   25.4275   83.0728   82.8277 C   0  0  0  0  0  0
   24.3621   83.7937   83.6778 C   0  0  0  0  0  0
   24.1500   85.1519   83.2165 N   0  0  0  0  0  0
   24.0624   75.6000   88.3319 C   0  0  0  0  0  0
   25.4658   75.4668   88.9297 C   0  0  0  0  0  0
   25.9471   74.1890   89.2257 C   0  0  0  0  0  0
   27.1969   74.0166   89.8087 C   0  0  0  0  0  0
   27.9914   75.1297   90.1086 C   0  0  0  0  0  0
   27.4984   76.4122   89.8365 C   0  0  0  0  0  0
   26.2476   76.5808   89.2478 C   0  0  0  0  0  0
   29.3256   74.9705   90.8060 C   0  0  0  0  0  0
   29.5790   75.7363   91.7396 O   0  0  0  0  0  0
   30.1892   73.9865   90.4122 N   0  0  0  0  0  0
   31.4457   73.7890   91.1636 C   0  0  0  0  0  0
   32.6028   74.3920   90.3356 C   0  0  0  0  0  0
   32.6718   73.7887   89.0017 N   0  0  0  0  0  0
   31.4039   73.9663   88.2751 C   0  0  0  0  0  0
   30.1839   73.4068   89.0511 C   0  0  0  0  0  0
   33.7953   74.3626   88.2531 C   0  0  0  0  0  0
   34.1687   73.5380   87.0265 C   0  0  0  0  0  0
   33.7153   73.9228   85.7601 C   0  0  0  0  0  0
   34.0016   73.1377   84.6422 C   0  0  0  0  0  0
   34.7407   71.9651   84.7862 C   0  0  0  0  0  0
   35.2001   71.5830   86.0446 C   0  0  0  0  0  0
   34.9056   72.3560   87.1661 C   0  0  0  0  0  0
   35.3402   71.9522   88.3810 F   0  0  0  0  0  0
   29.9328   71.8218   82.7963 H   0  0  0  0  0  0
   31.7269   73.3671   82.0963 H   0  0  0  0  0  0
   31.3299   75.7997   82.0976 H   0  0  0  0  0  0
   27.3297   75.1292   83.5348 H   0  0  0  0  0  0
   27.7503   72.6951   83.5251 H   0  0  0  0  0  0
   29.8227   77.6184   83.4301 H   0  0  0  0  0  0
   29.3233   77.5012   81.7547 H   0  0  0  0  0  0
   25.5125   78.2709   83.3808 H   0  0  0  0  0  0
   26.0391   79.5767   85.9864 H   0  0  0  0  0  0
   25.3112   81.8293   85.2387 H   0  0  0  0  0  0
   26.8955   81.4068   84.7242 H   0  0  0  0  0  0
   26.2439   81.1143   82.4260 H   0  0  0  0  0  0
   24.5499   81.1152   82.7842 H   0  0  0  0  0  0
   26.4024   83.5293   83.0042 H   0  0  0  0  0  0
   25.2048   83.2195   81.7700 H   0  0  0  0  0  0
   23.4119   83.2615   83.6367 H   0  0  0  0  0  0
   24.6685   83.8381   84.7237 H   0  0  0  0  0  0
   23.4973   85.1210   82.4429 H   0  0  0  0  0  0
   23.6466   85.6841   83.9346 H   0  0  0  0  0  0
   23.3528   75.5100   89.1548 H   0  0  0  0  0  0
   23.8670   74.7520   87.6821 H   0  0  0  0  0  0
   25.3504   73.3194   89.0184 H   0  0  0  0  0  0
   27.5330   73.0132   90.0362 H   0  0  0  0  0  0
   28.0831   77.2886   90.0866 H   0  0  0  0  0  0
   25.8910   77.5838   89.0571 H   0  0  0  0  0  0
   31.4145   74.2231   92.1662 H   0  0  0  0  0  0
   31.6300   72.7200   91.2922 H   0  0  0  0  0  0
   33.5451   74.2412   90.8643 H   0  0  0  0  0  0
   32.4523   75.4683   90.2332 H   0  0  0  0  0  0
   31.4575   73.4794   87.3018 H   0  0  0  0  0  0
   31.2578   75.0350   88.1053 H   0  0  0  0  0  0
   30.2861   72.3240   89.1256 H   0  0  0  0  0  0
   29.2819   73.6118   88.4766 H   0  0  0  0  0  0
   33.6051   75.4011   87.9707 H   0  0  0  0  0  0
   34.6819   74.4007   88.8859 H   0  0  0  0  0  0
   33.1290   74.8215   85.6387 H   0  0  0  0  0  0
   33.6453   73.4335   83.6649 H   0  0  0  0  0  0
   34.9496   71.3524   83.9224 H   0  0  0  0  0  0
   35.7716   70.6767   86.1574 H   0  0  0  0  0  0
  1  6  1  0  0  0
  1  2  2  0  0  0
  1 48  1  0  0  0
  2  3  1  0  0  0
  2 49  1  0  0  0
  3  4  2  0  0  0
  3 50  1  0  0  0
  4  7  1  0  0  0
  4  5  1  0  0  0
  5  6  2  0  0  0
  5 51  1  0  0  0
  6 52  1  0  0  0
  7  8  1  0  0  0
  7 53  1  0  0  0
  7 54  1  0  0  0
  8  9  1  0  0  0
  9 10  1  0  0  0
  9 11  2  0  0  0
 10 12  1  0  0  0
 10 55  1  0  0  0
 12 13  1  0  0  0
 12 20  1  0  0  0
 12 56  1  0  0  0
 13 14  1  0  0  0
 13 15  2  0  0  0
 14 16  2  0  0  0
 14 19  1  0  0  0
 16 17  1  0  0  0
 17 18  1  0  0  0
 18 25  1  0  0  0
 18 19  2  0  0  0
 20 21  1  0  0  0
 20 57  1  0  0  0
 20 58  1  0  0  0
 21 22  1  0  0  0
 21 59  1  0  0  0
 21 60  1  0  0  0
 22 23  1  0  0  0
 22 61  1  0  0  0
 22 62  1  0  0  0
 23 24  1  0  0  0
 23 63  1  0  0  0
 23 64  1  0  0  0
 24 65  1  0  0  0
 24 66  1  0  0  0
 25 26  1  0  0  0
 25 67  1  0  0  0
 25 68  1  0  0  0
 26 27  2  0  0  0
 26 31  1  0  0  0
 27 28  1  0  0  0
 27 69  1  0  0  0
 28 29  2  0  0  0
 28 70  1  0  0  0
 29 30  1  0  0  0
 29 32  1  0  0  0
 30 31  2  0  0  0
 30 71  1  0  0  0
 31 72  1  0  0  0
 32 33  2  0  0  0
 32 34  1  0  0  0
 34 35  1  0  0  0
 34 39  1  0  0  0
 35 36  1  0  0  0
 35 73  1  0  0  0
 35 74  1  0  0  0
 36 37  1  0  0  0
 36 75  1  0  0  0
 36 76  1  0  0  0
 37 38  1  0  0  0
 37 40  1  0  0  0
 38 39  1  0  0  0
 38 77  1  0  0  0
 38 78  1  0  0  0
 39 79  1  0  0  0
 39 80  1  0  0  0
 40 41  1  0  0  0
 40 81  1  0  0  0
 40 82  1  0  0  0
 41 42  2  0  0  0
 41 46  1  0  0  0
 42 43  1  0  0  0
 42 83  1  0  0  0
 43 44  2  0  0  0
 43 84  1  0  0  0
 44 45  1  0  0  0
 44 85  1  0  0  0
 45 46  2  0  0  0
 45 86  1  0  0  0
 46 47  1  0  0  0
M  END
> <s_m_entry_id>
40571

> <s_m_entry_name>
dock_pv.27

> <s_m_Source_Path>
/home/csk/Desktop/cluster/DUD-E-result/tryb1

> <s_m_Source_File>
dock_pv.maegz

> <i_m_Source_File_Index>
27

> <chembl_id>
CHEMBL214149

> <chembl_pref_name>
None

> <i_lp_mmshare_version>
53161

> <r_lp_tautomer_probability>
0.99990000499975

> <s_lp_Force_Field>
OPLS_2005

> <r_lp_Energy>
60.301657

> <b_lp_Chiralities_Consistent>
1

> <s_lp_Variant>
CHEMBL2617_lig169-1

> <s_i_glide_gridfile>
glide-grid_2zec

> <i_i_glide_lignum>
197

> <i_i_glide_rotatable_bonds>
17

> <r_i_docking_score>
-6.92990073620534

> <r_i_glide_ligand_efficiency>
-0.147444696515007

> <r_i_glide_ligand_efficiency_sa>
-0.532102265478602

> <r_i_glide_ligand_efficiency_ln>
-1.42880202939845

> <r_i_glide_gscore>
-6.92990073620534

> <r_i_glide_lipo>
-3.09938132406679

> <r_i_glide_hbond>
-0.456

> <r_i_glide_metal>
0

> <r_i_glide_rewards>
-0.309796232900191

> <r_i_glide_evdw>
-53.5060691833496

> <r_i_glide_ecoul>
-6.75186157226562

> <r_i_glide_erotb>
0.623359515768966

> <r_i_glide_esite>
0

> <r_i_glide_emodel>
-79.2749639022184

> <r_i_glide_energy>
-60.2579307556152

> <r_i_glide_einternal>
10.8519248962402

> <i_i_glide_confnum>
5

> <i_i_glide_posenum>
10

> <r_i_glide_eff_state_penalty>
0

> <s_user_duplicate_titles>
CHEMBL2617_lig169

> <i_f3d_flags>
0

> <s_m_subgroup_title>
dock_pv

> <s_m_subgroupid>
dock_pv

> <b_m_subgroup_collapsed>
1

$$$$
CHEMBL2617_lig93
                    3D
 Schrodinger Suite 2021-1.
 51 53  0  0  1  0            999 V2000
   26.1887   76.7326   86.4800 N   0  0  0  0  0  0
   23.5016   76.8628   87.2828 N   0  0  0  0  0  0
   25.3458   77.6032   85.8039 C   0  0  0  0  0  0
   24.3901   76.0202   87.8986 C   0  0  0  0  0  0
   23.9442   77.6093   86.3280 C   0  0  0  0  0  0
   25.7069   75.9516   87.5392 C   0  0  0  0  0  0
   19.7819   77.1107   83.0613 N   0  0  0  0  0  0
   27.5896   76.6758   85.9814 C   0  0  0  0  0  0
   27.8228   75.4639   85.0556 C   0  0  0  0  0  0
   20.7856   77.6568   83.7416 C   0  0  0  0  0  0
   21.3483   77.7761   81.6151 N   0  0  0  0  0  0
   20.1394   77.1634   81.7967 C   0  0  0  0  0  0
   29.1194   75.2472   84.7543 N   0  0  0  0  0  0
   25.7089   78.3133   84.8552 O   0  0  0  0  0  0
   21.7719   78.1080   82.8664 C   0  0  0  0  0  0
   23.1053   78.5252   85.7054 N   0  0  0  0  0  0
   23.7166   75.0434   89.2092 Cl  0  0  0  0  0  0
   26.8828   74.7522   84.6959 O   0  0  0  0  0  0
   29.7214   74.1667   84.0813 C   0  0  0  0  0  0
   20.7688   77.6812   85.2632 C   0  0  0  0  0  0
   31.1210   74.1563   84.0620 C   0  0  0  0  0  0
   26.7246   75.0602   88.2597 C   0  0  0  0  0  0
   21.6764   78.7464   85.9080 C   0  0  0  0  0  0
   31.8268   73.1026   83.4709 C   0  0  0  0  0  0
   33.8947   71.9520   84.1449 N   0  0  0  0  0  0
   29.7267   72.0630   82.8771 C   0  0  0  0  0  0
   29.0260   73.1107   83.4704 C   0  0  0  0  0  0
   33.3485   73.1136   83.4644 C   0  0  0  0  0  0
   31.1191   72.0546   82.8751 C   0  0  0  0  0  0
   28.2696   76.6227   86.8305 H   0  0  0  0  0  0
   27.8885   77.5929   85.4708 H   0  0  0  0  0  0
   21.8399   77.9465   80.7433 H   0  0  0  0  0  0
   19.5790   76.8107   80.9415 H   0  0  0  0  0  0
   29.7736   75.9297   85.1038 H   0  0  0  0  0  0
   22.7270   78.5887   83.0132 H   0  0  0  0  0  0
   23.5362   79.1010   84.9943 H   0  0  0  0  0  0
   20.8594   76.7213   85.7670 H   0  0  0  0  0  0
   19.7595   77.9858   85.5434 H   0  0  0  0  0  0
   31.6722   74.9632   84.5228 H   0  0  0  0  0  0
   26.2834   74.4681   89.0604 H   0  0  0  0  0  0
   27.1996   74.3571   87.5779 H   0  0  0  0  0  0
   27.5039   75.6706   88.7176 H   0  0  0  0  0  0
   21.4627   78.7920   86.9760 H   0  0  0  0  0  0
   21.3781   79.7350   85.5575 H   0  0  0  0  0  0
   33.5383   71.9098   85.0875 H   0  0  0  0  0  0
   33.6268   71.0904   83.6751 H   0  0  0  0  0  0
   29.1845   71.2530   82.4170 H   0  0  0  0  0  0
   27.9497   73.0692   83.4408 H   0  0  0  0  0  0
   33.7214   74.0139   83.9562 H   0  0  0  0  0  0
   33.7029   73.1512   82.4336 H   0  0  0  0  0  0
   31.6450   71.2305   82.4156 H   0  0  0  0  0  0
  1  3  1  0  0  0
  1  6  1  0  0  0
  1  8  1  0  0  0
  2  4  1  0  0  0
  2  5  2  0  0  0
  3  5  1  0  0  0
  3 14  2  0  0  0
  4  6  2  0  0  0
  4 17  1  0  0  0
  5 16  1  0  0  0
  6 22  1  0  0  0
  7 10  1  0  0  0
  7 12  2  0  0  0
  8  9  1  0  0  0
  8 30  1  0  0  0
  8 31  1  0  0  0
  9 13  1  0  0  0
  9 18  2  0  0  0
 10 20  1  0  0  0
 10 15  2  0  0  0
 11 15  1  0  0  0
 11 12  1  0  0  0
 11 32  1  0  0  0
 12 33  1  0  0  0
 13 19  1  0  0  0
 13 34  1  0  0  0
 15 35  1  0  0  0
 16 23  1  0  0  0
 16 36  1  0  0  0
 19 21  2  0  0  0
 19 27  1  0  0  0
 20 23  1  0  0  0
 20 37  1  0  0  0
 20 38  1  0  0  0
 21 24  1  0  0  0
 21 39  1  0  0  0
 22 40  1  0  0  0
 22 41  1  0  0  0
 22 42  1  0  0  0
 23 43  1  0  0  0
 23 44  1  0  0  0
 24 28  1  0  0  0
 24 29  2  0  0  0
 25 28  1  0  0  0
 25 45  1  0  0  0
 25 46  1  0  0  0
 26 27  2  0  0  0
 26 29  1  0  0  0
 26 47  1  0  0  0
 27 48  1  0  0  0
 28 49  1  0  0  0
 28 50  1  0  0  0
 29 51  1  0  0  0
M  END
> <s_m_entry_id>
40572

> <s_m_entry_name>
dock_pv.28

> <s_m_Source_Path>
/home/csk/Desktop/cluster/DUD-E-result/tryb1

> <s_m_Source_File>
dock_pv.maegz

> <i_m_Source_File_Index>
28

> <chembl_id>
CHEMBL187587

> <chembl_pref_name>
None

> <i_lp_mmshare_version>
53161

> <r_lp_tautomer_probability>
0.499999999999999

> <s_lp_Force_Field>
OPLS_2005

> <r_lp_Energy>
25.936126

> <b_lp_Chiralities_Consistent>
1

> <s_lp_Variant>
CHEMBL2617_lig93-1

> <s_i_glide_gridfile>
glide-grid_2zec

> <i_i_glide_lignum>
119

> <i_i_glide_rotatable_bonds>
9

> <r_i_docking_score>
-6.89110026511711

> <r_i_glide_ligand_efficiency>
-0.237624147073004

> <r_i_glide_ligand_efficiency_sa>
-0.730056664422199

> <r_i_glide_ligand_efficiency_ln>
-1.57788721748635

> <r_i_glide_gscore>
-6.89110026511711

> <r_i_glide_lipo>
-2.76056140749931

> <r_i_glide_hbond>
-0.670395234817103

> <r_i_glide_metal>
0

> <r_i_glide_rewards>
-0.862992664281124

> <r_i_glide_evdw>
-47.8132553100586

> <r_i_glide_ecoul>
-6.70579957962036

> <r_i_glide_erotb>
0.799381743926413

> <r_i_glide_esite>
0

> <r_i_glide_emodel>
-74.6351607720078

> <r_i_glide_energy>
-54.519054889679

> <r_i_glide_einternal>
6.18011140823364

> <i_i_glide_confnum>
21

> <i_i_glide_posenum>
181

> <r_i_glide_eff_state_penalty>
0

> <s_user_duplicate_titles>
CHEMBL2617_lig93,308816

> <i_f3d_flags>
0

> <s_m_subgroup_title>
dock_pv

> <s_m_subgroupid>
dock_pv

> <b_m_subgroup_collapsed>
1

$$$$
CHEMBL2617_lig69
                    3D
 Schrodinger Suite 2021-1.
 73 76  0  0  1  0            999 V2000
   27.0841   73.7624   89.6168 C   0  0  0  0  0  0
   23.7751   77.8543   88.2941 C   0  0  0  0  0  0
   26.3359   74.6731   88.9286 N   0  0  0  0  0  0
   24.6515   76.9202   88.7580 N   0  0  0  0  0  0
   34.6618   72.1984   85.6670 C   0  0  0  0  0  0
   28.3978   74.0453   89.6927 N   0  0  0  0  0  0
   33.3551   72.7445   85.7464 N   0  0  0  0  0  0
   35.2554   71.5526   86.5691 N   0  0  0  0  0  0
   26.8469   75.9072   88.2870 C   0  0  0  0  0  0
   24.1473   75.6713   89.3623 C   0  0  0  0  0  0
   24.8910   74.4695   88.7482 C   0  0  0  0  0  0
   26.1121   77.1249   88.8983 C   0  0  0  0  0  0
   26.5999   72.7521   90.1377 O   0  0  0  0  0  0
   22.5520   77.7374   88.4170 O   0  0  0  0  0  0
   23.0890   78.5869   84.8413 C   0  0  0  0  0  0
   24.3152   78.8924   87.6294 N   0  0  0  0  0  0
   24.3749   79.1280   84.1911 C   0  0  0  0  0  0
   21.9807   78.1288   83.8757 C   0  0  0  0  0  0
   35.2545   72.4352   84.4168 N   0  0  0  0  0  0
   32.4459   72.8473   86.8095 C   0  0  0  0  0  0
   29.4740   73.0886   89.9562 C   0  0  0  0  0  0
   30.5160   73.0218   88.8386 C   0  0  0  0  0  0
   31.1067   73.0677   86.4928 C   0  0  0  0  0  0
   32.8197   72.7530   88.1571 C   0  0  0  0  0  0
   23.5684   79.9921   87.0125 C   0  0  0  0  0  0
   30.1489   73.1514   87.4978 C   0  0  0  0  0  0
   31.8611   72.8430   89.1641 C   0  0  0  0  0  0
   22.5499   79.5530   85.9307 C   0  0  0  0  0  0
   22.1258   78.2259   82.4869 C   0  0  0  0  0  0
   20.8166   77.5508   84.3958 C   0  0  0  0  0  0
   25.5383   78.3522   84.1920 C   0  0  0  0  0  0
   24.4022   80.4137   83.6392 C   0  0  0  0  0  0
   19.8271   77.0679   83.5447 C   0  0  0  0  0  0
   26.7162   78.8555   83.6448 C   0  0  0  0  0  0
   25.5769   80.9183   83.0929 C   0  0  0  0  0  0
   21.1366   77.7421   81.6344 C   0  0  0  0  0  0
   19.9988   77.1525   82.1662 C   0  0  0  0  0  0
   26.7307   80.1388   83.1039 C   0  0  0  0  0  0
   28.6953   74.9781   89.4554 H   0  0  0  0  0  0
   33.0683   73.2566   84.9261 H   0  0  0  0  0  0
   36.1726   71.2610   86.2773 H   0  0  0  0  0  0
   26.6320   75.8468   87.2194 H   0  0  0  0  0  0
   27.9248   76.0354   88.3727 H   0  0  0  0  0  0
   24.3499   75.7023   90.4338 H   0  0  0  0  0  0
   23.0742   75.5300   89.2168 H   0  0  0  0  0  0
   24.6730   74.3961   87.6811 H   0  0  0  0  0  0
   24.5419   73.5528   89.2178 H   0  0  0  0  0  0
   26.4704   78.0445   88.4354 H   0  0  0  0  0  0
   26.3419   77.1841   89.9629 H   0  0  0  0  0  0
   23.3738   77.6674   85.3579 H   0  0  0  0  0  0
   25.3167   78.9125   87.5027 H   0  0  0  0  0  0
   36.1032   71.9589   84.1580 H   0  0  0  0  0  0
   34.6914   72.7007   83.6241 H   0  0  0  0  0  0
   29.9416   73.3663   90.9021 H   0  0  0  0  0  0
   29.0866   72.0774   90.0954 H   0  0  0  0  0  0
   30.7939   73.1522   85.4617 H   0  0  0  0  0  0
   33.8509   72.5976   88.4372 H   0  0  0  0  0  0
   24.3212   80.6421   86.5676 H   0  0  0  0  0  0
   23.0733   80.5722   87.7932 H   0  0  0  0  0  0
   29.1142   73.2947   87.2239 H   0  0  0  0  0  0
   32.1657   72.7498   90.1972 H   0  0  0  0  0  0
   22.1517   80.4316   85.4384 H   0  0  0  0  0  0
   21.6921   79.1157   86.4393 H   0  0  0  0  0  0
   23.0100   78.6570   82.0405 H   0  0  0  0  0  0
   20.6834   77.4351   85.4620 H   0  0  0  0  0  0
   25.5353   77.3577   84.6117 H   0  0  0  0  0  0
   23.5104   81.0247   83.6307 H   0  0  0  0  0  0
   18.9489   76.5904   83.9542 H   0  0  0  0  0  0
   27.6130   78.2548   83.6436 H   0  0  0  0  0  0
   25.5922   81.9111   82.6682 H   0  0  0  0  0  0
   21.2660   77.8107   80.5630 H   0  0  0  0  0  0
   19.2488   76.7543   81.4967 H   0  0  0  0  0  0
   27.6440   80.5340   82.6819 H   0  0  0  0  0  0
  1  3  1  0  0  0
  1  6  1  0  0  0
  1 13  2  0  0  0
  2  4  1  0  0  0
  2 14  2  0  0  0
  2 16  1  0  0  0
  3  9  1  0  0  0
  3 11  1  0  0  0
  4 10  1  0  0  0
  4 12  1  0  0  0
  5  7  1  0  0  0
  5  8  2  0  0  0
  5 19  1  0  0  0
  6 21  1  0  0  0
  6 39  1  0  0  0
  7 20  1  0  0  0
  7 40  1  0  0  0
  8 41  1  0  0  0
  9 12  1  0  0  0
  9 42  1  0  0  0
  9 43  1  0  0  0
 10 11  1  0  0  0
 10 44  1  0  0  0
 10 45  1  0  0  0
 11 46  1  0  0  0
 11 47  1  0  0  0
 12 48  1  0  0  0
 12 49  1  0  0  0
 15 28  1  0  0  0
 15 17  1  0  0  0
 15 18  1  0  0  0
 15 50  1  0  0  0
 16 25  1  0  0  0
 16 51  1  0  0  0
 17 31  2  0  0  0
 17 32  1  0  0  0
 18 29  2  0  0  0
 18 30  1  0  0  0
 19 52  1  0  0  0
 19 53  1  0  0  0
 20 24  1  0  0  0
 20 23  2  0  0  0
 21 22  1  0  0  0
 21 54  1  0  0  0
 21 55  1  0  0  0
 22 26  2  0  0  0
 22 27  1  0  0  0
 23 26  1  0  0  0
 23 56  1  0  0  0
 24 27  2  0  0  0
 24 57  1  0  0  0
 25 28  1  0  0  0
 25 58  1  0  0  0
 25 59  1  0  0  0
 26 60  1  0  0  0
 27 61  1  0  0  0
 28 62  1  0  0  0
 28 63  1  0  0  0
 29 36  1  0  0  0
 29 64  1  0  0  0
 30 33  2  0  0  0
 30 65  1  0  0  0
 31 34  1  0  0  0
 31 66  1  0  0  0
 32 35  2  0  0  0
 32 67  1  0  0  0
 33 37  1  0  0  0
 33 68  1  0  0  0
 34 38  2  0  0  0
 34 69  1  0  0  0
 35 38  1  0  0  0
 35 70  1  0  0  0
 36 37  2  0  0  0
 36 71  1  0  0  0
 37 72  1  0  0  0
 38 73  1  0  0  0
M  END
> <s_m_entry_id>
40573

> <s_m_entry_name>
dock_pv.29

> <s_m_Source_Path>
/home/csk/Desktop/cluster/DUD-E-result/tryb1

> <s_m_Source_File>
dock_pv.maegz

> <i_m_Source_File_Index>
29

> <chembl_id>
CHEMBL74695

> <chembl_pref_name>
None

> <i_lp_mmshare_version>
53161

> <r_lp_tautomer_probability>
1

> <s_lp_Force_Field>
OPLS_2005

> <r_lp_Energy>
60.096613

> <b_lp_Chiralities_Consistent>
1

> <s_lp_Variant>
CHEMBL2617_lig69-1

> <s_i_glide_gridfile>
glide-grid_2zec

> <i_i_glide_lignum>
92

> <i_i_glide_rotatable_bonds>
13

> <r_i_docking_score>
-6.88365362169544

> <r_i_glide_ligand_efficiency>
-0.181148779518301

> <r_i_glide_ligand_efficiency_sa>
-0.609017740973725

> <r_i_glide_ligand_efficiency_ln>
-1.4843182174111

> <r_i_glide_gscore>
-6.88365362169544

> <r_i_glide_lipo>
-3.64571341761625

> <r_i_glide_hbond>
-0.399134772077939

> <r_i_glide_metal>
0

> <r_i_glide_rewards>
-0.254478190467994

> <r_i_glide_evdw>
-54.6448173522949

> <r_i_glide_ecoul>
-5.750732421875

> <r_i_glide_erotb>
1.01052348936273

> <r_i_glide_esite>
0

> <r_i_glide_emodel>
-81.9807178852812

> <r_i_glide_energy>
-60.3955497741699

> <r_i_glide_einternal>
7.55372095108032

> <i_i_glide_confnum>
1

> <i_i_glide_posenum>
239

> <r_i_glide_eff_state_penalty>
0

> <s_user_duplicate_titles>
CHEMBL2617_lig69

> <i_f3d_flags>
0

> <s_m_subgroup_title>
dock_pv

> <s_m_subgroupid>
dock_pv

> <b_m_subgroup_collapsed>
1

$$$$
CHEMBL2617_lig58
                    3D
 Schrodinger Suite 2021-1.
 76 78  0  0  1  0            999 V2000
   32.7123   74.4531   82.0997 C   0  0  0  0  0  0
   24.3292   75.5599   88.9574 C   0  0  0  0  0  0
   31.3979   73.8476   82.6134 C   0  0  0  0  0  0
   25.7867   75.1228   88.7304 C   0  0  0  0  0  0
   33.9248   74.3699   83.0420 C   0  0  0  0  0  0
   23.9720   76.9879   88.5110 C   0  0  0  0  0  0
   34.2034   73.1847   83.6133 N   0  0  0  0  0  0
   30.3017   74.6136   82.4718 N   0  0  0  0  0  0
   26.7607   76.0418   88.8785 N   0  0  0  0  0  0
   22.9888   77.1241   87.6099 N   0  0  0  0  0  0
   31.3765   72.7322   83.1374 O   0  0  0  0  0  0
   34.6116   75.3733   83.2287 O   0  0  0  0  0  0
   26.0166   73.9546   88.4188 O   0  0  0  0  0  0
   24.5780   77.9449   88.9869 O   0  0  0  0  0  0
   28.9797   74.2949   83.0145 C   0  0  0  0  0  0
   22.5859   78.3991   87.0173 C   0  0  0  0  0  0
   28.1810   75.8418   88.5866 C   0  0  0  0  0  0
   35.2620   72.9451   84.5920 C   0  0  0  0  0  0
   22.2294   78.2424   85.5501 C   0  0  0  0  0  0
   28.4637   75.4952   87.1260 C   0  0  0  0  0  0
   28.8292   74.7446   84.4617 C   0  0  0  0  0  0
   34.7694   73.1401   86.0197 C   0  0  0  0  0  0
   21.5954   77.9592   82.8467 C   0  0  0  0  0  0
   33.7781   73.5531   88.6048 C   0  0  0  0  0  0
   32.0326   73.1529   90.3666 N   0  0  0  0  0  0
   20.0621   77.1520   81.0416 N   0  0  0  0  0  0
   29.1950   74.3488   86.8181 C   0  0  0  0  0  0
   20.8958   78.0988   85.1606 C   0  0  0  0  0  0
   29.3609   73.9632   85.4908 C   0  0  0  0  0  0
   33.7246   72.3509   86.5026 C   0  0  0  0  0  0
   27.9385   76.2868   86.0957 C   0  0  0  0  0  0
   35.3405   74.1144   86.8407 C   0  0  0  0  0  0
   28.1150   75.9080   84.7669 C   0  0  0  0  0  0
   23.2382   78.2919   84.5872 C   0  0  0  0  0  0
   34.8480   74.3155   88.1282 C   0  0  0  0  0  0
   22.9189   78.1516   83.2412 C   0  0  0  0  0  0
   33.2284   72.5565   87.7862 C   0  0  0  0  0  0
   20.5791   77.9527   83.8121 C   0  0  0  0  0  0
   21.3274   77.7836   81.3554 C   0  0  0  0  0  0
   33.2580   73.8497   90.0132 C   0  0  0  0  0  0
   32.5571   75.4986   81.8359 H   0  0  0  0  0  0
   32.9543   73.9540   81.1661 H   0  0  0  0  0  0
   23.6776   74.8484   88.4452 H   0  0  0  0  0  0
   24.1164   75.4552   90.0195 H   0  0  0  0  0  0
   33.5311   72.4390   83.4781 H   0  0  0  0  0  0
   30.4125   75.5345   82.0676 H   0  0  0  0  0  0
   26.4740   76.9819   89.1179 H   0  0  0  0  0  0
   22.4375   76.3133   87.3690 H   0  0  0  0  0  0
   28.2067   74.7659   82.4025 H   0  0  0  0  0  0
   28.7856   73.2182   82.9562 H   0  0  0  0  0  0
   21.7520   78.8151   87.5790 H   0  0  0  0  0  0
   23.3698   79.1561   87.1060 H   0  0  0  0  0  0
   28.5904   75.0891   89.2622 H   0  0  0  0  0  0
   28.6968   76.7748   88.8163 H   0  0  0  0  0  0
   36.1387   73.5702   84.3918 H   0  0  0  0  0  0
   35.5894   71.9139   84.4851 H   0  0  0  0  0  0
   31.2718   73.4307   89.7648 H   0  0  0  0  0  0
   32.1518   72.1505   90.2780 H   0  0  0  0  0  0
   19.7566   76.5311   81.7762 H   0  0  0  0  0  0
   19.3480   77.8446   80.8504 H   0  0  0  0  0  0
   29.5949   73.7208   87.6038 H   0  0  0  0  0  0
   20.1073   78.0923   85.8986 H   0  0  0  0  0  0
   29.9000   73.0524   85.2652 H   0  0  0  0  0  0
   33.2785   71.5954   85.8702 H   0  0  0  0  0  0
   27.3687   77.1770   86.3278 H   0  0  0  0  0  0
   36.1466   74.7361   86.4782 H   0  0  0  0  0  0
   27.6911   76.5144   83.9770 H   0  0  0  0  0  0
   24.2692   78.4234   84.8816 H   0  0  0  0  0  0
   35.2898   75.0820   88.7521 H   0  0  0  0  0  0
   23.7068   78.1722   82.5006 H   0  0  0  0  0  0
   32.4098   71.9429   88.1279 H   0  0  0  0  0  0
   19.5460   77.8338   83.5300 H   0  0  0  0  0  0
   21.3657   78.7502   80.8499 H   0  0  0  0  0  0
   22.1102   77.1517   80.9340 H   0  0  0  0  0  0
   34.0301   73.5904   90.7398 H   0  0  0  0  0  0
   33.0678   74.9215   90.1039 H   0  0  0  0  0  0
  1  3  1  0  0  0
  1  5  1  0  0  0
  1 41  1  0  0  0
  1 42  1  0  0  0
  2  4  1  0  0  0
  2  6  1  0  0  0
  2 43  1  0  0  0
  2 44  1  0  0  0
  3  8  1  0  0  0
  3 11  2  0  0  0
  4  9  1  0  0  0
  4 13  2  0  0  0
  5  7  1  0  0  0
  5 12  2  0  0  0
  6 10  1  0  0  0
  6 14  2  0  0  0
  7 18  1  0  0  0
  7 45  1  0  0  0
  8 15  1  0  0  0
  8 46  1  0  0  0
  9 17  1  0  0  0
  9 47  1  0  0  0
 10 16  1  0  0  0
 10 48  1  0  0  0
 15 21  1  0  0  0
 15 49  1  0  0  0
 15 50  1  0  0  0
 16 19  1  0  0  0
 16 51  1  0  0  0
 16 52  1  0  0  0
 17 20  1  0  0  0
 17 53  1  0  0  0
 17 54  1  0  0  0
 18 22  1  0  0  0
 18 55  1  0  0  0
 18 56  1  0  0  0
 19 28  1  0  0  0
 19 34  2  0  0  0
 20 31  2  0  0  0
 20 27  1  0  0  0
 21 29  1  0  0  0
 21 33  2  0  0  0
 22 30  2  0  0  0
 22 32  1  0  0  0
 23 36  2  0  0  0
 23 39  1  0  0  0
 23 38  1  0  0  0
 24 35  1  0  0  0
 24 40  1  0  0  0
 24 37  2  0  0  0
 25 40  1  0  0  0
 25 57  1  0  0  0
 25 58  1  0  0  0
 26 39  1  0  0  0
 26 59  1  0  0  0
 26 60  1  0  0  0
 27 29  2  0  0  0
 27 61  1  0  0  0
 28 38  2  0  0  0
 28 62  1  0  0  0
 29 63  1  0  0  0
 30 37  1  0  0  0
 30 64  1  0  0  0
 31 33  1  0  0  0
 31 65  1  0  0  0
 32 35  2  0  0  0
 32 66  1  0  0  0
 33 67  1  0  0  0
 34 36  1  0  0  0
 34 68  1  0  0  0
 35 69  1  0  0  0
 36 70  1  0  0  0
 37 71  1  0  0  0
 38 72  1  0  0  0
 39 73  1  0  0  0
 39 74  1  0  0  0
 40 75  1  0  0  0
 40 76  1  0  0  0
M  END
> <s_m_entry_id>
40574

> <s_m_entry_name>
dock_pv.30

> <s_m_Source_Path>
/home/csk/Desktop/cluster/DUD-E-result/tryb1

> <s_m_Source_File>
dock_pv.maegz

> <i_m_Source_File_Index>
30

> <chembl_id>
CHEMBL77521

> <chembl_pref_name>
None

> <i_lp_mmshare_version>
53161

> <r_lp_tautomer_probability>
1

> <s_lp_Force_Field>
OPLS_2005

> <r_lp_Energy>
13.550136

> <b_lp_Chiralities_Consistent>
1

> <s_lp_Variant>
CHEMBL2617_lig58-1

> <s_i_glide_gridfile>
glide-grid_2zec

> <i_i_glide_lignum>
63

> <i_i_glide_rotatable_bonds>
18

> <r_i_docking_score>
-6.87470333742978

> <r_i_glide_ligand_efficiency>
-0.171867583435744

> <r_i_glide_ligand_efficiency_sa>
-0.587778866654398

> <r_i_glide_ligand_efficiency_ln>
-1.46617190838592

> <r_i_glide_gscore>
-6.87470333742978

> <r_i_glide_lipo>
-2.95287609717062

> <r_i_glide_hbond>
-0.890254700816567

> <r_i_glide_metal>
0

> <r_i_glide_rewards>
-0.4873818474784

> <r_i_glide_evdw>
-53.5890197753906

> <r_i_glide_ecoul>
-6.54149055480957

> <r_i_glide_erotb>
1.11648388002678

> <r_i_glide_esite>
0

> <r_i_glide_emodel>
-79.1455417852602

> <r_i_glide_energy>
-60.1305103302002

> <r_i_glide_einternal>
3.39647364616394

> <i_i_glide_confnum>
7

> <i_i_glide_posenum>
287

> <r_i_glide_eff_state_penalty>
0

> <s_user_duplicate_titles>
CHEMBL2617_lig58

> <i_f3d_flags>
0

> <s_m_subgroup_title>
dock_pv

> <s_m_subgroupid>
dock_pv

> <b_m_subgroup_collapsed>
1

$$$$
CHEMBL2617_lig135
                    3D
 Schrodinger Suite 2021-1.
 70 73  0  0  1  0            999 V2000
   23.4715   78.8065   83.8302 C   0  0  0  0  0  0
   24.0424   78.9931   85.0319 N   0  0  0  0  0  0
   25.3383   79.6641   85.2232 C   0  0  2  0  0  0
   25.9356   79.0086   86.4700 C   0  0  0  0  0  0
   26.4915   77.6501   86.3405 C   0  0  0  0  0  0
   27.2081   77.0709   87.2861 N   0  0  0  0  0  0
   27.6644   75.8926   86.6937 O   0  0  0  0  0  0
   27.1178   75.9045   85.4569 C   0  0  0  0  0  0
   26.3503   76.9329   85.2404 N   0  0  0  0  0  0
   27.5445   74.8557   84.4487 C   0  0  0  0  0  0
   28.6318   75.3291   83.4842 C   0  0  0  0  0  0
   28.6062   76.6241   82.9538 C   0  0  0  0  0  0
   29.5986   77.0414   82.0779 C   0  0  0  0  0  0
   30.6090   76.1670   81.6935 C   0  0  0  0  0  0
   30.6380   74.8662   82.2144 C   0  0  0  0  0  0
   29.6497   74.4499   83.1043 C   0  0  0  0  0  0
   31.5271   76.6721   80.8034 O   0  0  0  0  0  0
   31.9124   76.9916   77.8614 C   0  0  0  0  0  0
   31.0059   78.0199   78.1422 C   0  0  0  0  0  0
   30.0644   78.4182   77.1917 C   0  0  0  0  0  0
   30.0425   77.7961   75.9363 C   0  0  0  0  0  0
   30.9334   76.7593   75.6593 C   0  0  0  0  0  0
   31.8606   76.3563   76.6181 C   0  0  0  0  0  0
   28.9513   79.6801   77.5956 Cl  0  0  0  0  0  0
   28.9500   78.2997   74.6981 Cl  0  0  0  0  0  0
   25.9770   79.6085   87.5470 O   0  0  0  0  0  0
   24.0431   79.1520   82.7997 O   0  0  0  0  0  0
   25.1084   81.2030   85.2779 C   0  0  0  0  0  0
   26.1533   82.0474   84.5154 C   0  0  0  0  0  0
   25.7303   83.5156   84.2703 C   0  0  0  0  0  0
   24.5307   83.6851   83.3185 C   0  0  0  0  0  0
   24.1589   85.0829   83.1899 N   0  0  0  0  0  0
   32.3647   75.7839   80.0747 C   0  0  0  0  0  0
   32.9521   76.5735   78.8957 C   0  0  0  0  0  0
   22.0990   78.1695   83.7805 C   0  0  0  0  0  0
   21.3907   77.7744   84.9344 C   0  0  0  0  0  0
   20.1500   77.1519   84.8174 C   0  0  0  0  0  0
   19.5909   76.9162   83.5648 C   0  0  0  0  0  0
   20.2592   77.3313   82.4174 C   0  0  0  0  0  0
   21.5012   77.9520   82.5268 C   0  0  0  0  0  0
   21.8862   77.9563   86.1823 F   0  0  0  0  0  0
   23.5041   78.7744   85.8589 H   0  0  0  0  0  0
   25.9945   79.4393   84.3776 H   0  0  0  0  0  0
   27.8768   73.9519   84.9568 H   0  0  0  0  0  0
   26.6893   74.5624   83.8411 H   0  0  0  0  0  0
   27.8196   77.3188   83.2027 H   0  0  0  0  0  0
   29.5737   78.0428   81.6748 H   0  0  0  0  0  0
   31.4161   74.1721   81.9355 H   0  0  0  0  0  0
   29.6797   73.4427   83.4930 H   0  0  0  0  0  0
   31.0312   78.5129   79.1030 H   0  0  0  0  0  0
   30.9131   76.2689   74.6973 H   0  0  0  0  0  0
   32.5447   75.5548   76.3852 H   0  0  0  0  0  0
   24.1499   81.4193   84.8169 H   0  0  0  0  0  0
   25.0086   81.5518   86.3037 H   0  0  0  0  0  0
   27.0946   82.0278   85.0652 H   0  0  0  0  0  0
   26.3586   81.5887   83.5472 H   0  0  0  0  0  0
   25.5072   83.9992   85.2170 H   0  0  0  0  0  0
   26.5811   84.0602   83.8567 H   0  0  0  0  0  0
   24.7702   83.2873   82.3319 H   0  0  0  0  0  0
   23.6576   83.1440   83.6776 H   0  0  0  0  0  0
   23.3499   85.1532   82.5844 H   0  0  0  0  0  0
   23.8406   85.4720   84.0765 H   0  0  0  0  0  0
   33.1649   75.4276   80.7254 H   0  0  0  0  0  0
   31.8195   74.9128   79.7032 H   0  0  0  0  0  0
   33.4613   77.4655   79.2625 H   0  0  0  0  0  0
   33.7285   75.9799   78.4179 H   0  0  0  0  0  0
   19.6395   76.8231   85.7078 H   0  0  0  0  0  0
   18.6451   76.4013   83.4802 H   0  0  0  0  0  0
   19.8290   77.1599   81.4399 H   0  0  0  0  0  0
   22.0055   78.2484   81.6169 H   0  0  0  0  0  0
  1  2  1  0  0  0
  1 27  2  0  0  0
  1 35  1  0  0  0
  2  3  1  0  0  0
  2 42  1  0  0  0
  3  4  1  0  0  0
  3 28  1  0  0  0
  3 43  1  0  0  0
  4  5  1  0  0  0
  4 26  2  0  0  0
  5  6  2  0  0  0
  5  9  1  0  0  0
  6  7  1  0  0  0
  7  8  1  0  0  0
  8  9  2  0  0  0
  8 10  1  0  0  0
 10 11  1  0  0  0
 10 44  1  0  0  0
 10 45  1  0  0  0
 11 12  2  0  0  0
 11 16  1  0  0  0
 12 13  1  0  0  0
 12 46  1  0  0  0
 13 14  2  0  0  0
 13 47  1  0  0  0
 14 15  1  0  0  0
 14 17  1  0  0  0
 15 16  2  0  0  0
 15 48  1  0  0  0
 16 49  1  0  0  0
 17 33  1  0  0  0
 18 19  2  0  0  0
 18 23  1  0  0  0
 18 34  1  0  0  0
 19 20  1  0  0  0
 19 50  1  0  0  0
 20 21  2  0  0  0
 20 24  1  0  0  0
 21 22  1  0  0  0
 21 25  1  0  0  0
 22 23  2  0  0  0
 22 51  1  0  0  0
 23 52  1  0  0  0
 28 29  1  0  0  0
 28 53  1  0  0  0
 28 54  1  0  0  0
 29 30  1  0  0  0
 29 55  1  0  0  0
 29 56  1  0  0  0
 30 31  1  0  0  0
 30 57  1  0  0  0
 30 58  1  0  0  0
 31 32  1  0  0  0
 31 59  1  0  0  0
 31 60  1  0  0  0
 32 61  1  0  0  0
 32 62  1  0  0  0
 33 34  1  0  0  0
 33 63  1  0  0  0
 33 64  1  0  0  0
 34 65  1  0  0  0
 34 66  1  0  0  0
 35 36  2  0  0  0
 35 40  1  0  0  0
 36 37  1  0  0  0
 36 41  1  0  0  0
 37 38  2  0  0  0
 37 67  1  0  0  0
 38 39  1  0  0  0
 38 68  1  0  0  0
 39 40  2  0  0  0
 39 69  1  0  0  0
 40 70  1  0  0  0
M  END
> <s_m_entry_id>
40575

> <s_m_entry_name>
dock_pv.31

> <s_m_Source_Path>
/home/csk/Desktop/cluster/DUD-E-result/tryb1

> <s_m_Source_File>
dock_pv.maegz

> <i_m_Source_File_Index>
31

> <chembl_id>
CHEMBL559161

> <chembl_pref_name>
None

> <i_lp_mmshare_version>
53161

> <r_lp_tautomer_probability>
0.99990000499975

> <s_lp_Force_Field>
OPLS_2005

> <r_lp_Energy>
26.029071

> <b_lp_Chiralities_Consistent>
1

> <s_lp_Variant>
CHEMBL2617_lig135-1

> <s_i_glide_gridfile>
glide-grid_2zec

> <i_i_glide_lignum>
162

> <i_i_glide_rotatable_bonds>
15

> <r_i_docking_score>
-6.84666985851343

> <r_i_glide_ligand_efficiency>
-0.16699194776862

> <r_i_glide_ligand_efficiency_sa>
-0.57582451258806

> <r_i_glide_ligand_efficiency_ln>
-1.45254379515631

> <r_i_glide_gscore>
-6.84666985851343

> <r_i_glide_lipo>
-3.10671670897098

> <r_i_glide_hbond>
-0.443895726885984

> <r_i_glide_metal>
0

> <r_i_glide_rewards>
-0.504020863086683

> <r_i_glide_evdw>
-51.0093955993652

> <r_i_glide_ecoul>
-5.49033784866333

> <r_i_glide_erotb>
0.584882603803923

> <r_i_glide_esite>
-0.00289870610594194

> <r_i_glide_emodel>
-75.6845230235835

> <r_i_glide_energy>
-56.4997334480286

> <r_i_glide_einternal>
9.89193248748779

> <i_i_glide_confnum>
4

> <i_i_glide_posenum>
385

> <r_i_glide_eff_state_penalty>
0

> <s_user_duplicate_titles>
CHEMBL2617_lig135

> <i_f3d_flags>
0

> <s_m_subgroup_title>
dock_pv

> <s_m_subgroupid>
dock_pv

> <b_m_subgroup_collapsed>
1

$$$$
CHEMBL2617_lig98
                    3D
 Schrodinger Suite 2021-1.
 62 64  0  0  1  0            999 V2000
   26.7876   75.1164   89.6286 N   0  0  0  0  0  0
   24.9544   77.2323   89.6795 N   0  0  0  0  0  0
   25.6886   75.0538   88.7787 C   0  0  0  0  0  0
   26.0119   77.1938   90.5439 C   0  0  0  0  0  0
   24.8019   76.2547   88.8548 C   0  0  0  0  0  0
   26.9289   76.1810   90.5286 C   0  0  0  0  0  0
   27.8023   74.0369   89.4631 C   0  0  0  0  0  0
   28.8091   74.3565   88.3344 C   0  0  0  0  0  0
   23.7625   76.3076   87.9320 N   0  0  0  0  0  0
   22.6583   77.6815   86.2000 C   0  0  0  0  0  0
   21.3449   77.5999   85.7338 C   0  0  0  0  0  0
   23.6870   77.9951   85.2921 C   0  0  0  0  0  0
   23.3734   78.2107   83.9457 C   0  0  0  0  0  0
   21.0309   77.8245   84.3944 C   0  0  0  0  0  0
   22.0556   78.1278   83.4880 C   0  0  0  0  0  0
   29.7777   73.4359   88.1544 N   0  0  0  0  0  0
   25.4698   74.1040   88.0171 O   0  0  0  0  0  0
   22.9008   77.4634   87.6907 C   0  0  0  0  0  0
   26.0975   78.5722   91.6490 Cl  0  0  0  0  0  0
   28.7081   75.3878   87.6658 O   0  0  0  0  0  0
   30.7375   73.3912   87.1273 C   0  0  0  0  0  0
   31.9625   72.7768   87.4094 C   0  0  0  0  0  0
   28.1415   76.1388   91.4603 C   0  0  0  0  0  0
   19.3500   76.5537   83.1584 N   0  0  0  0  0  0
   32.9545   72.6645   86.4196 C   0  0  0  0  0  0
   34.5499   71.5523   88.0172 N   0  0  0  0  0  0
   19.5764   77.7321   83.9714 C   0  0  0  0  0  0
   31.4679   73.7554   84.8437 C   0  0  0  0  0  0
   25.1370   78.1325   85.7355 C   0  0  0  0  0  0
   21.7702   78.3820   82.0167 C   0  0  0  0  0  0
   30.4928   73.8722   85.8317 C   0  0  0  0  0  0
   34.3128   72.0035   86.6557 C   0  0  0  0  0  0
   32.6908   73.1567   85.1379 C   0  0  0  0  0  0
   27.3182   73.0838   89.2448 H   0  0  0  0  0  0
   28.3265   73.8440   90.3970 H   0  0  0  0  0  0
   23.5272   75.4671   87.4216 H   0  0  0  0  0  0
   20.5485   77.3561   86.4177 H   0  0  0  0  0  0
   24.1610   78.4450   83.2433 H   0  0  0  0  0  0
   29.8349   72.6885   88.8290 H   0  0  0  0  0  0
   21.9536   77.2887   88.1984 H   0  0  0  0  0  0
   23.3037   78.3840   88.1169 H   0  0  0  0  0  0
   32.1371   72.3936   88.4040 H   0  0  0  0  0  0
   28.2064   77.0107   92.1095 H   0  0  0  0  0  0
   28.0986   75.2642   92.1097 H   0  0  0  0  0  0
   29.0683   76.1044   90.8863 H   0  0  0  0  0  0
   19.8822   76.6084   82.3001 H   0  0  0  0  0  0
   19.6535   75.7130   83.6314 H   0  0  0  0  0  0
   34.7627   72.3522   88.5981 H   0  0  0  0  0  0
   33.7162   71.1293   88.4063 H   0  0  0  0  0  0
   18.9496   77.6831   84.8570 H   0  0  0  0  0  0
   19.2801   78.6333   83.4341 H   0  0  0  0  0  0
   31.2730   74.1240   83.8470 H   0  0  0  0  0  0
   25.7346   78.6798   85.0056 H   0  0  0  0  0  0
   25.2040   78.6869   86.6715 H   0  0  0  0  0  0
   25.5836   77.1506   85.8911 H   0  0  0  0  0  0
   21.9275   77.4736   81.4353 H   0  0  0  0  0  0
   20.7644   78.7516   81.8259 H   0  0  0  0  0  0
   22.4398   79.1520   81.6425 H   0  0  0  0  0  0
   29.5458   74.3217   85.5730 H   0  0  0  0  0  0
   35.1043   72.7041   86.3844 H   0  0  0  0  0  0
   34.3981   71.1521   85.9828 H   0  0  0  0  0  0
   33.4346   73.0707   84.3584 H   0  0  0  0  0  0
  1  3  1  0  0  0
  1  6  1  0  0  0
  1  7  1  0  0  0
  2  4  1  0  0  0
  2  5  2  0  0  0
  3  5  1  0  0  0
  3 17  2  0  0  0
  4  6  2  0  0  0
  4 19  1  0  0  0
  5  9  1  0  0  0
  6 23  1  0  0  0
  7  8  1  0  0  0
  7 34  1  0  0  0
  7 35  1  0  0  0
  8 16  1  0  0  0
  8 20  2  0  0  0
  9 18  1  0  0  0
  9 36  1  0  0  0
 10 18  1  0  0  0
 10 11  2  0  0  0
 10 12  1  0  0  0
 11 14  1  0  0  0
 11 37  1  0  0  0
 12 13  2  0  0  0
 12 29  1  0  0  0
 13 15  1  0  0  0
 13 38  1  0  0  0
 14 27  1  0  0  0
 14 15  2  0  0  0
 15 30  1  0  0  0
 16 21  1  0  0  0
 16 39  1  0  0  0
 18 40  1  0  0  0
 18 41  1  0  0  0
 21 22  2  0  0  0
 21 31  1  0  0  0
 22 25  1  0  0  0
 22 42  1  0  0  0
 23 43  1  0  0  0
 23 44  1  0  0  0
 23 45  1  0  0  0
 24 27  1  0  0  0
 24 46  1  0  0  0
 24 47  1  0  0  0
 25 32  1  0  0  0
 25 33  2  0  0  0
 26 32  1  0  0  0
 26 48  1  0  0  0
 26 49  1  0  0  0
 27 50  1  0  0  0
 27 51  1  0  0  0
 28 31  2  0  0  0
 28 33  1  0  0  0
 28 52  1  0  0  0
 29 53  1  0  0  0
 29 54  1  0  0  0
 29 55  1  0  0  0
 30 56  1  0  0  0
 30 57  1  0  0  0
 30 58  1  0  0  0
 31 59  1  0  0  0
 32 60  1  0  0  0
 32 61  1  0  0  0
 33 62  1  0  0  0
M  END
> <s_m_entry_id>
40576

> <s_m_entry_name>
dock_pv.32

> <s_m_Source_Path>
/home/csk/Desktop/cluster/DUD-E-result/tryb1

> <s_m_Source_File>
dock_pv.maegz

> <i_m_Source_File_Index>
32

> <chembl_id>
CHEMBL360174

> <chembl_pref_name>
None

> <i_lp_mmshare_version>
53161

> <r_lp_tautomer_probability>
1

> <s_lp_Force_Field>
OPLS_2005

> <r_lp_Energy>
35.697976

> <b_lp_Chiralities_Consistent>
1

> <s_lp_Variant>
CHEMBL2617_lig98-1

> <s_i_glide_gridfile>
glide-grid_2zec

> <i_i_glide_lignum>
125

> <i_i_glide_rotatable_bonds>
9

> <r_i_docking_score>
-6.84328381358001

> <r_i_glide_ligand_efficiency>
-0.207372236775152

> <r_i_glide_ligand_efficiency_sa>
-0.665153567769085

> <r_i_glide_ligand_efficiency_ln>
-1.52191088751292

> <r_i_glide_gscore>
-6.84328381358001

> <r_i_glide_lipo>
-2.91938183692024

> <r_i_glide_hbond>
-0.810687963283984

> <r_i_glide_metal>
0

> <r_i_glide_rewards>
-0.252005842161672

> <r_i_glide_evdw>
-41.902458190918

> <r_i_glide_ecoul>
-9.39196681976318

> <r_i_glide_erotb>
0.642709761296262

> <r_i_glide_esite>
0

> <r_i_glide_emodel>
-69.524307169551

> <r_i_glide_energy>
-51.2944250106812

> <r_i_glide_einternal>
4.77646780014038

> <i_i_glide_confnum>
5

> <i_i_glide_posenum>
266

> <r_i_glide_eff_state_penalty>
0

> <s_user_duplicate_titles>
CHEMBL2617_lig98,309297

> <i_f3d_flags>
0

> <s_m_subgroup_title>
dock_pv

> <s_m_subgroupid>
dock_pv

> <b_m_subgroup_collapsed>
1

$$$$
CHEMBL2617_lig72
                    3D
 Schrodinger Suite 2021-1.
 63 66  0  0  1  0            999 V2000
   24.4481   78.0642   88.5893 C   0  0  0  0  0  0
   29.2726   75.2995   88.7282 C   0  0  0  0  0  0
   28.0649   75.9070   88.9247 N   0  0  0  0  0  0
   25.6332   77.4297   88.8300 N   0  0  0  0  0  0
   20.7817   77.4999   81.7813 C   0  0  0  0  0  0
   24.5398   79.3096   88.0819 N   0  0  0  0  0  0
   29.2331   74.0399   88.2476 N   0  0  0  0  0  0
   21.8889   78.1985   82.3208 N   0  0  0  0  0  0
   19.7501   77.1517   82.4006 N   0  0  0  0  0  0
   28.0357   77.3168   89.3812 C   0  0  0  0  0  0
   26.9511   78.0640   88.5679 C   0  0  0  0  0  0
   26.7717   75.2660   88.5652 C   0  0  0  0  0  0
   25.6197   76.0180   89.2825 C   0  0  0  0  0  0
   30.3487   75.8493   88.9766 O   0  0  0  0  0  0
   23.3511   77.5479   88.8141 O   0  0  0  0  0  0
   30.8427   72.9752   83.9764 C   0  0  0  0  0  0
   30.3958   72.7522   85.3016 C   0  0  0  0  0  0
   31.6952   74.0893   83.7131 C   0  0  0  0  0  0
   20.9499   77.2158   80.4174 N   0  0  0  0  0  0
   32.0781   74.9315   84.7879 C   0  0  0  0  0  0
   22.2155   78.6285   83.6144 C   0  0  0  0  0  0
   30.7927   73.5891   86.3457 C   0  0  0  0  0  0
   30.3839   73.2656   87.7782 C   0  0  0  0  0  0
   23.4342   80.0717   87.5025 C   0  0  0  0  0  0
   23.0074   79.5519   86.1345 C   0  0  0  0  0  0
   31.6363   74.6677   86.0830 C   0  0  0  0  0  0
   23.3081   79.4865   83.7414 C   0  0  0  0  0  0
   21.5150   78.2406   84.7627 C   0  0  0  0  0  0
   21.9042   78.7068   86.0142 C   0  0  0  0  0  0
   23.7023   79.9518   84.9929 C   0  0  0  0  0  0
   30.4777   72.1184   82.9075 C   0  0  0  0  0  0
   32.1357   74.3225   82.3859 C   0  0  0  0  0  0
   30.9412   72.3668   81.6185 C   0  0  0  0  0  0
   31.7502   73.4663   81.3570 C   0  0  0  0  0  0
   25.4646   79.6783   87.9117 H   0  0  0  0  0  0
   28.3306   73.6227   88.0836 H   0  0  0  0  0  0
   22.6420   78.3328   81.6604 H   0  0  0  0  0  0
   19.1368   76.6328   81.7899 H   0  0  0  0  0  0
   28.9865   77.8276   89.2088 H   0  0  0  0  0  0
   27.8046   77.3526   90.4456 H   0  0  0  0  0  0
   27.1957   77.9930   87.5088 H   0  0  0  0  0  0
   26.9674   79.0989   88.9064 H   0  0  0  0  0  0
   26.7338   74.2334   88.9188 H   0  0  0  0  0  0
   26.6123   75.3311   87.4868 H   0  0  0  0  0  0
   25.7638   75.9818   90.3635 H   0  0  0  0  0  0
   24.6848   75.5121   89.0232 H   0  0  0  0  0  0
   29.7510   71.9101   85.4996 H   0  0  0  0  0  0
   20.1327   77.0716   79.8388 H   0  0  0  0  0  0
   21.6699   77.7102   79.9088 H   0  0  0  0  0  0
   32.7258   75.7761   84.5977 H   0  0  0  0  0  0
   31.2419   73.4211   88.4360 H   0  0  0  0  0  0
   30.1488   72.2039   87.8603 H   0  0  0  0  0  0
   23.7502   81.1115   87.4158 H   0  0  0  0  0  0
   22.5817   80.0807   88.1836 H   0  0  0  0  0  0
   31.9544   75.3114   86.8916 H   0  0  0  0  0  0
   23.8573   79.8051   82.8667 H   0  0  0  0  0  0
   20.6688   77.5738   84.7010 H   0  0  0  0  0  0
   21.3559   78.3965   86.8887 H   0  0  0  0  0  0
   24.5499   80.6183   85.0742 H   0  0  0  0  0  0
   29.8403   71.2665   83.0955 H   0  0  0  0  0  0
   32.7798   75.1649   82.1738 H   0  0  0  0  0  0
   30.6546   71.7094   80.8102 H   0  0  0  0  0  0
   32.0904   73.6490   80.3478 H   0  0  0  0  0  0
  1  4  1  0  0  0
  1  6  1  0  0  0
  1 15  2  0  0  0
  2  3  1  0  0  0
  2  7  1  0  0  0
  2 14  2  0  0  0
  3 12  1  0  0  0
  3 10  1  0  0  0
  4 11  1  0  0  0
  4 13  1  0  0  0
  5  8  1  0  0  0
  5  9  2  0  0  0
  5 19  1  0  0  0
  6 24  1  0  0  0
  6 35  1  0  0  0
  7 23  1  0  0  0
  7 36  1  0  0  0
  8 21  1  0  0  0
  8 37  1  0  0  0
  9 38  1  0  0  0
 10 11  1  0  0  0
 10 39  1  0  0  0
 10 40  1  0  0  0
 11 41  1  0  0  0
 11 42  1  0  0  0
 12 13  1  0  0  0
 12 43  1  0  0  0
 12 44  1  0  0  0
 13 45  1  0  0  0
 13 46  1  0  0  0
 16 17  1  0  0  0
 16 31  2  0  0  0
 16 18  1  0  0  0
 17 22  2  0  0  0
 17 47  1  0  0  0
 18 20  1  0  0  0
 18 32  2  0  0  0
 19 48  1  0  0  0
 19 49  1  0  0  0
 20 26  2  0  0  0
 20 50  1  0  0  0
 21 27  2  0  0  0
 21 28  1  0  0  0
 22 23  1  0  0  0
 22 26  1  0  0  0
 23 51  1  0  0  0
 23 52  1  0  0  0
 24 25  1  0  0  0
 24 53  1  0  0  0
 24 54  1  0  0  0
 25 29  1  0  0  0
 25 30  2  0  0  0
 26 55  1  0  0  0
 27 30  1  0  0  0
 27 56  1  0  0  0
 28 29  2  0  0  0
 28 57  1  0  0  0
 29 58  1  0  0  0
 30 59  1  0  0  0
 31 33  1  0  0  0
 31 60  1  0  0  0
 32 34  1  0  0  0
 32 61  1  0  0  0
 33 34  2  0  0  0
 33 62  1  0  0  0
 34 63  1  0  0  0
M  END
> <s_m_entry_id>
40577

> <s_m_entry_name>
dock_pv.33

> <s_m_Source_Path>
/home/csk/Desktop/cluster/DUD-E-result/tryb1

> <s_m_Source_File>
dock_pv.maegz

> <i_m_Source_File_Index>
33

> <chembl_id>
CHEMBL305614

> <chembl_pref_name>
None

> <i_lp_mmshare_version>
53161

> <r_lp_tautomer_probability>
1

> <s_lp_Force_Field>
OPLS_2005

> <r_lp_Energy>
54.162038

> <b_lp_Chiralities_Consistent>
1

> <s_lp_Variant>
CHEMBL2617_lig72-1

> <s_i_glide_gridfile>
glide-grid_2zec

> <i_i_glide_lignum>
95

> <i_i_glide_rotatable_bonds>
10

> <r_i_docking_score>
-6.83783050642428

> <r_i_glide_ligand_efficiency>
-0.201112661953655

> <r_i_glide_ligand_efficiency_sa>
-0.651526952285551

> <r_i_glide_ligand_efficiency_ln>
-1.51066855351831

> <r_i_glide_gscore>
-6.83783050642428

> <r_i_glide_lipo>
-3.13418344325932

> <r_i_glide_hbond>
-0.829767921628252

> <r_i_glide_metal>
0

> <r_i_glide_rewards>
-0.27681893041386

> <r_i_glide_evdw>
-45.1301460266113

> <r_i_glide_ecoul>
-7.75926733016968

> <r_i_glide_erotb>
0.857527744166124

> <r_i_glide_esite>
-0.0341905544329525

> <r_i_glide_emodel>
-74.0519465309975

> <r_i_glide_energy>
-52.889413356781

> <r_i_glide_einternal>
2.33571267127991

> <i_i_glide_confnum>
5

> <i_i_glide_posenum>
340

> <r_i_glide_eff_state_penalty>
0

> <s_user_duplicate_titles>
CHEMBL2617_lig72

> <i_f3d_flags>
0

> <s_m_subgroup_title>
dock_pv

> <s_m_subgroupid>
dock_pv

> <b_m_subgroup_collapsed>
1

$$$$
CHEMBL2617_lig121
                    3D
 Schrodinger Suite 2021-1.
 67 71  0  0  1  0            999 V2000
   29.2714   78.5303   82.3254 C   0  0  0  0  0  0
   30.0158   76.4460   82.9156 N   0  0  0  0  0  0
   28.9514   77.3169   82.9259 C   0  0  0  0  0  0
   28.4149   79.6937   82.1856 C   0  0  0  0  0  0
   30.5677   78.2958   81.7355 C   0  0  0  0  0  0
   31.0369   77.0137   82.1703 C   0  0  0  0  0  0
   27.5314   80.0303   83.1743 N   0  0  0  0  0  0
   30.0074   75.1338   83.5612 C   0  0  0  0  0  0
   23.4846   79.2285   84.3463 C   0  0  0  0  0  0
   28.5515   80.3821   81.1740 O   0  0  0  0  0  0
   27.3974   79.3892   84.4944 C   0  0  0  0  0  0
   26.6470   81.2038   83.0187 C   0  0  0  0  0  0
   24.8923   79.8292   84.3242 C   0  0  0  0  0  0
   22.9703   78.5841   83.2173 C   0  0  0  0  0  0
   25.9870   78.7629   84.5546 C   0  0  0  0  0  0
   25.1891   80.6920   83.0654 C   0  0  0  0  0  0
   21.6716   78.0730   83.2059 C   0  0  0  0  0  0
   31.4076   79.0699   80.9130 C   0  0  0  0  0  0
   19.7502   77.5518   81.7050 N   0  0  0  0  0  0
   29.5446   73.9917   82.6131 C   0  0  0  0  0  0
   32.3139   76.5409   81.8349 C   0  0  0  0  0  0
   22.6969   79.2989   85.5010 C   0  0  0  0  0  0
   21.4130   78.7520   85.5174 C   0  0  0  0  0  0
   21.1720   77.3976   81.9364 C   0  0  0  0  0  0
   20.8982   78.1453   84.3720 C   0  0  0  0  0  0
   30.6185   73.4935   81.6136 C   0  0  0  0  0  0
   29.0208   72.7566   83.3731 C   0  0  0  0  0  0
   32.6585   78.5791   80.5541 C   0  0  0  0  0  0
   33.1020   77.3441   81.0135 C   0  0  0  0  0  0
   30.1679   72.0208   84.0948 C   0  0  0  0  0  0
   31.8063   72.8080   82.3091 C   0  0  0  0  0  0
   31.2960   71.6073   83.1149 C   0  0  0  0  0  0
   28.0382   77.0028   83.4108 H   0  0  0  0  0  0
   30.9946   74.9540   83.9857 H   0  0  0  0  0  0
   29.3396   75.1975   84.4228 H   0  0  0  0  0  0
   27.4602   80.1928   85.2310 H   0  0  0  0  0  0
   28.2262   78.7469   84.7871 H   0  0  0  0  0  0
   26.8342   81.8693   83.8634 H   0  0  0  0  0  0
   26.8573   81.7989   82.1269 H   0  0  0  0  0  0
   24.9189   80.5133   85.1751 H   0  0  0  0  0  0
   23.5774   78.4866   82.3310 H   0  0  0  0  0  0
   25.8684   78.3260   85.5469 H   0  0  0  0  0  0
   25.9071   77.9552   83.8252 H   0  0  0  0  0  0
   24.9928   80.1450   82.1441 H   0  0  0  0  0  0
   24.5440   81.5713   83.0616 H   0  0  0  0  0  0
   31.0854   80.0412   80.5669 H   0  0  0  0  0  0
   19.5915   78.4885   81.3286 H   0  0  0  0  0  0
   19.4880   76.9422   80.9400 H   0  0  0  0  0  0
   28.6999   74.3592   82.0279 H   0  0  0  0  0  0
   32.6827   75.5875   82.1790 H   0  0  0  0  0  0
   23.0751   79.7806   86.3920 H   0  0  0  0  0  0
   20.8151   78.8126   86.4153 H   0  0  0  0  0  0
   21.3911   76.3396   82.0165 H   0  0  0  0  0  0
   21.7076   77.7764   81.0639 H   0  0  0  0  0  0
   19.9005   77.7307   84.3904 H   0  0  0  0  0  0
   30.1810   72.7527   80.9358 H   0  0  0  0  0  0
   30.9812   74.3119   80.9944 H   0  0  0  0  0  0
   28.2578   73.0458   84.0961 H   0  0  0  0  0  0
   28.5355   72.0674   82.6780 H   0  0  0  0  0  0
   33.3022   79.1728   79.9200 H   0  0  0  0  0  0
   34.0854   77.0002   80.7242 H   0  0  0  0  0  0
   29.7501   71.1513   84.5815 H   0  0  0  0  0  0
   30.5785   72.6474   84.8877 H   0  0  0  0  0  0
   32.5431   72.4823   81.5769 H   0  0  0  0  0  0
   32.3326   73.4952   82.9688 H   0  0  0  0  0  0
   30.9197   70.8432   82.4302 H   0  0  0  0  0  0
   32.1465   71.1535   83.6170 H   0  0  0  0  0  0
  1  3  2  0  0  0
  1  4  1  0  0  0
  1  5  1  0  0  0
  2  3  1  0  0  0
  2  8  1  0  0  0
  2  6  1  0  0  0
  3 33  1  0  0  0
  4  7  1  0  0  0
  4 10  2  0  0  0
  5  6  2  0  0  0
  5 18  1  0  0  0
  6 21  1  0  0  0
  7 11  1  0  0  0
  7 12  1  0  0  0
  8 20  1  0  0  0
  8 34  1  0  0  0
  8 35  1  0  0  0
  9 13  1  0  0  0
  9 14  2  0  0  0
  9 22  1  0  0  0
 11 15  1  0  0  0
 11 36  1  0  0  0
 11 37  1  0  0  0
 12 16  1  0  0  0
 12 38  1  0  0  0
 12 39  1  0  0  0
 13 16  1  0  0  0
 13 15  1  0  0  0
 13 40  1  0  0  0
 14 17  1  0  0  0
 14 41  1  0  0  0
 15 42  1  0  0  0
 15 43  1  0  0  0
 16 44  1  0  0  0
 16 45  1  0  0  0
 17 24  1  0  0  0
 17 25  2  0  0  0
 18 28  2  0  0  0
 18 46  1  0  0  0
 19 24  1  0  0  0
 19 47  1  0  0  0
 19 48  1  0  0  0
 20 26  1  0  0  0
 20 27  1  0  0  0
 20 49  1  0  0  0
 21 29  2  0  0  0
 21 50  1  0  0  0
 22 23  2  0  0  0
 22 51  1  0  0  0
 23 25  1  0  0  0
 23 52  1  0  0  0
 24 53  1  0  0  0
 24 54  1  0  0  0
 25 55  1  0  0  0
 26 31  1  0  0  0
 26 56  1  0  0  0
 26 57  1  0  0  0
 27 30  1  0  0  0
 27 58  1  0  0  0
 27 59  1  0  0  0
 28 29  1  0  0  0
 28 60  1  0  0  0
 29 61  1  0  0  0
 30 32  1  0  0  0
 30 62  1  0  0  0
 30 63  1  0  0  0
 31 32  1  0  0  0
 31 64  1  0  0  0
 31 65  1  0  0  0
 32 66  1  0  0  0
 32 67  1  0  0  0
M  END
> <s_m_entry_id>
40578

> <s_m_entry_name>
dock_pv.34

> <s_m_Source_Path>
/home/csk/Desktop/cluster/DUD-E-result/tryb1

> <s_m_Source_File>
dock_pv.maegz

> <i_m_Source_File_Index>
34

> <chembl_id>
CHEMBL191731

> <chembl_pref_name>
None

> <i_lp_mmshare_version>
53161

> <r_lp_tautomer_probability>
1

> <s_lp_Force_Field>
OPLS_2005

> <r_lp_Energy>
47.457018

> <b_lp_Chiralities_Consistent>
1

> <s_lp_Variant>
CHEMBL2617_lig121-1

> <s_i_glide_gridfile>
glide-grid_2zec

> <i_i_glide_lignum>
148

> <i_i_glide_rotatable_bonds>
6

> <r_i_docking_score>
-6.8261897359128

> <r_i_glide_ligand_efficiency>
-0.213318429247275

> <r_i_glide_ligand_efficiency_sa>
-0.677243797200274

> <r_i_glide_ligand_efficiency_ln>
-1.52856995677537

> <r_i_glide_gscore>
-6.8261897359128

> <r_i_glide_lipo>
-3.43136501550149

> <r_i_glide_hbond>
-0.584613207331788

> <r_i_glide_metal>
0

> <r_i_glide_rewards>
-0.601323395583436

> <r_i_glide_evdw>
-33.9217796325684

> <r_i_glide_ecoul>
-7.00819492340088

> <r_i_glide_erotb>
0.538430102642455

> <r_i_glide_esite>
0

> <r_i_glide_emodel>
-55.8221341478731

> <r_i_glide_energy>
-40.9299745559692

> <r_i_glide_einternal>
2.97323179244995

> <i_i_glide_confnum>
51

> <i_i_glide_posenum>
102

> <r_i_glide_eff_state_penalty>
0

> <s_user_duplicate_titles>
CHEMBL2617_lig121

> <i_f3d_flags>
0

> <s_m_subgroup_title>
dock_pv

> <s_m_subgroupid>
dock_pv

> <b_m_subgroup_collapsed>
1

$$$$
CHEMBL2617_lig115
                    3D
 Schrodinger Suite 2021-1.
 54 58  0  0  1  0            999 V2000
   24.8456   78.7842   84.1600 C   0  0  0  0  0  0
   22.5844   78.4095   84.0295 N   0  0  0  0  0  0
   23.7873   78.4279   83.3511 C   0  0  0  0  0  0
   26.2187   78.8120   83.7096 C   0  0  0  0  0  0
   21.4146   77.9463   83.4412 C   0  0  0  0  0  0
   24.2407   79.1521   85.4111 C   0  0  0  0  0  0
   22.8365   78.8698   85.3201 C   0  0  0  0  0  0
   27.1932   78.4902   84.6052 N   0  0  0  0  0  0
   21.2249   77.9106   82.1395 N   0  0  0  0  0  0
   20.1530   77.1632   84.3584 S   0  0  0  0  0  0
   29.3826   74.7887   84.1620 C   0  0  0  0  0  0
   26.4614   79.1470   82.5485 O   0  0  0  0  0  0
   20.1500   77.2237   81.8100 C   0  0  0  0  0  0
   26.9916   77.5191   85.7048 C   0  0  0  0  0  0
   28.6073   78.6311   84.2074 C   0  0  0  0  0  0
   19.4227   76.6852   82.8647 C   0  0  0  0  0  0
   28.8707   76.1367   84.6724 C   0  0  0  0  0  0
   30.6508   74.3539   84.5595 C   0  0  0  0  0  0
   29.0869   77.2713   83.6465 C   0  0  0  0  0  0
   27.4129   76.1214   85.1921 C   0  0  0  0  0  0
   31.1920   73.1570   84.0857 C   0  0  0  0  0  0
   24.7478   79.6921   86.6080 C   0  0  0  0  0  0
   21.9844   79.0780   86.4159 C   0  0  0  0  0  0
   33.3320   71.9522   83.6198 N   0  0  0  0  0  0
   28.6381   73.9958   83.2804 C   0  0  0  0  0  0
   29.1564   72.7833   82.8212 C   0  0  0  0  0  0
   32.5915   72.7740   84.5585 C   0  0  0  0  0  0
   30.4262   72.3630   83.2210 C   0  0  0  0  0  0
   22.5500   79.5513   87.5998 C   0  0  0  0  0  0
   23.8955   79.8706   87.6924 C   0  0  0  0  0  0
   23.8225   78.0999   82.3198 H   0  0  0  0  0  0
   19.9164   77.1077   80.7591 H   0  0  0  0  0  0
   27.6397   77.8303   86.5249 H   0  0  0  0  0  0
   25.9970   77.5215   86.1446 H   0  0  0  0  0  0
   28.7707   79.4820   83.5436 H   0  0  0  0  0  0
   29.1675   78.8841   85.1088 H   0  0  0  0  0  0
   18.5497   76.0464   82.8363 H   0  0  0  0  0  0
   29.4957   76.3666   85.5392 H   0  0  0  0  0  0
   31.2375   74.9664   85.2285 H   0  0  0  0  0  0
   28.5716   77.0605   82.7068 H   0  0  0  0  0  0
   30.1502   77.3714   83.4244 H   0  0  0  0  0  0
   27.3275   75.4266   86.0275 H   0  0  0  0  0  0
   26.7106   75.8015   84.4224 H   0  0  0  0  0  0
   25.7907   79.9521   86.6937 H   0  0  0  0  0  0
   20.9236   78.8949   86.3714 H   0  0  0  0  0  0
   32.9851   70.9983   83.5820 H   0  0  0  0  0  0
   33.2680   72.3371   82.6874 H   0  0  0  0  0  0
   27.6658   74.3199   82.9402 H   0  0  0  0  0  0
   28.5771   72.1719   82.1436 H   0  0  0  0  0  0
   33.1726   73.6860   84.7034 H   0  0  0  0  0  0
   32.5336   72.2739   85.5251 H   0  0  0  0  0  0
   30.8080   71.4250   82.8471 H   0  0  0  0  0  0
   21.9099   79.7105   88.4569 H   0  0  0  0  0  0
   24.2871   80.2739   88.6162 H   0  0  0  0  0  0
  1  3  2  0  0  0
  1  4  1  0  0  0
  1  6  1  0  0  0
  2  3  1  0  0  0
  2  5  1  0  0  0
  2  7  1  0  0  0
  3 31  1  0  0  0
  4  8  1  0  0  0
  4 12  2  0  0  0
  5  9  2  0  0  0
  5 10  1  0  0  0
  6  7  2  0  0  0
  6 22  1  0  0  0
  7 23  1  0  0  0
  8 14  1  0  0  0
  8 15  1  0  0  0
  9 13  1  0  0  0
 10 16  1  0  0  0
 11 17  1  0  0  0
 11 18  2  0  0  0
 11 25  1  0  0  0
 13 16  2  0  0  0
 13 32  1  0  0  0
 14 20  1  0  0  0
 14 33  1  0  0  0
 14 34  1  0  0  0
 15 19  1  0  0  0
 15 35  1  0  0  0
 15 36  1  0  0  0
 16 37  1  0  0  0
 17 19  1  0  0  0
 17 20  1  0  0  0
 17 38  1  0  0  0
 18 21  1  0  0  0
 18 39  1  0  0  0
 19 40  1  0  0  0
 19 41  1  0  0  0
 20 42  1  0  0  0
 20 43  1  0  0  0
 21 27  1  0  0  0
 21 28  2  0  0  0
 22 30  2  0  0  0
 22 44  1  0  0  0
 23 29  2  0  0  0
 23 45  1  0  0  0
 24 27  1  0  0  0
 24 46  1  0  0  0
 24 47  1  0  0  0
 25 26  2  0  0  0
 25 48  1  0  0  0
 26 28  1  0  0  0
 26 49  1  0  0  0
 27 50  1  0  0  0
 27 51  1  0  0  0
 28 52  1  0  0  0
 29 30  1  0  0  0
 29 53  1  0  0  0
 30 54  1  0  0  0
M  END
> <s_m_entry_id>
40579

> <s_m_entry_name>
dock_pv.35

> <s_m_Source_Path>
/home/csk/Desktop/cluster/DUD-E-result/tryb1

> <s_m_Source_File>
dock_pv.maegz

> <i_m_Source_File_Index>
35

> <chembl_id>
CHEMBL189372

> <chembl_pref_name>
None

> <i_lp_mmshare_version>
53161

> <r_lp_tautomer_probability>
1

> <s_lp_Force_Field>
OPLS_2005

> <r_lp_Energy>
37.993095

> <b_lp_Chiralities_Consistent>
1

> <s_lp_Variant>
CHEMBL2617_lig115-1

> <s_i_glide_gridfile>
glide-grid_2zec

> <i_i_glide_lignum>
142

> <i_i_glide_rotatable_bonds>
5

> <r_i_docking_score>
-6.82270995668152

> <r_i_glide_ligand_efficiency>
-0.227423665222717

> <r_i_glide_ligand_efficiency_sa>
-0.706658204402034

> <r_i_glide_ligand_efficiency_ln>
-1.55019404153714

> <r_i_glide_gscore>
-6.82270995668152

> <r_i_glide_lipo>
-2.37051232109516

> <r_i_glide_hbond>
-0.493113618649422

> <r_i_glide_metal>
0

> <r_i_glide_rewards>
-1.2455473834447

> <r_i_glide_evdw>
-43.1461524963379

> <r_i_glide_ecoul>
-6.74470520019531

> <r_i_glide_erotb>
0.455476771353958

> <r_i_glide_esite>
0

> <r_i_glide_emodel>
-66.5932157529243

> <r_i_glide_energy>
-49.8908576965332

> <r_i_glide_einternal>
6.17953157424927

> <i_i_glide_confnum>
40

> <i_i_glide_posenum>
374

> <r_i_glide_eff_state_penalty>
0

> <s_user_duplicate_titles>
CHEMBL2617_lig115,318379

> <i_f3d_flags>
0

> <s_m_subgroup_title>
dock_pv

> <s_m_subgroupid>
dock_pv

> <b_m_subgroup_collapsed>
1

$$$$
CHEMBL2617_lig137
                    3D
 Schrodinger Suite 2021-1.
 72 74  0  0  1  0            999 V2000
   24.5666   76.8625   86.1820 C   0  0  0  0  0  0
   23.8397   77.8470   85.6194 N   0  0  0  0  0  0
   23.5814   78.0255   84.1851 C   0  0  2  0  0  0
   24.0100   79.4636   83.9069 C   0  0  0  0  0  0
   25.4078   79.7187   83.5345 C   0  0  0  0  0  0
   25.8555   80.9201   83.2189 N   0  0  0  0  0  0
   27.2184   80.7215   82.9964 O   0  0  0  0  0  0
   27.4106   79.3970   83.2019 C   0  0  0  0  0  0
   26.3151   78.7610   83.5040 N   0  0  0  0  0  0
   28.8234   78.8514   83.0901 C   0  0  0  0  0  0
   28.9732   77.3351   83.2370 C   0  0  0  0  0  0
   28.4348   76.6624   84.3388 C   0  0  0  0  0  0
   28.6061   75.2863   84.4705 C   0  0  0  0  0  0
   29.3393   74.5702   83.5252 C   0  0  0  0  0  0
   29.8686   75.2450   82.4173 C   0  0  0  0  0  0
   29.6905   76.6178   82.2769 C   0  0  0  0  0  0
   29.4977   73.2173   83.7611 O   0  0  0  0  0  0
   32.4921   72.7513   84.7225 C   0  0  0  0  0  0
   33.7414   72.1479   84.9251 C   0  0  0  0  0  0
   34.2505   71.9807   86.2140 C   0  0  0  0  0  0
   33.5332   72.4567   87.3182 C   0  0  0  0  0  0
   32.2824   73.0406   87.1254 C   0  0  0  0  0  0
   31.7594   73.1726   85.8391 C   0  0  0  0  0  0
   35.7501   71.1534   86.4168 Cl  0  0  0  0  0  0
   34.1701   72.3520   88.9236 Cl  0  0  0  0  0  0
   23.1990   80.3868   84.0198 O   0  0  0  0  0  0
   25.1028   75.9842   85.5040 O   0  0  0  0  0  0
   22.0901   77.7517   83.9073 C   0  0  0  0  0  0
   21.6916   77.8403   82.4163 C   0  0  0  0  0  0
   20.4815   76.9770   81.9898 C   0  0  0  0  0  0
   19.4362   76.6993   83.0830 C   0  0  0  0  0  0
   18.9503   77.9524   83.6197 N   0  0  0  0  0  0
   30.4925   72.4689   83.0564 C   0  0  0  0  0  0
   31.9589   72.9216   83.2986 C   0  0  0  0  0  0
   24.7057   76.8364   87.7348 C   0  0  0  0  0  0
   24.0232   75.5559   88.2749 C   0  0  0  0  0  0
   24.0578   78.0624   88.4368 C   0  0  0  0  0  0
   26.2103   76.8036   88.1037 C   0  0  0  0  0  0
   23.3944   78.5189   86.2274 H   0  0  0  0  0  0
   24.1590   77.3235   83.5831 H   0  0  0  0  0  0
   29.2518   79.1757   82.1420 H   0  0  0  0  0  0
   29.4456   79.3171   83.8554 H   0  0  0  0  0  0
   27.8772   77.1977   85.0944 H   0  0  0  0  0  0
   28.1840   74.7769   85.3241 H   0  0  0  0  0  0
   30.4231   74.7256   81.6517 H   0  0  0  0  0  0
   30.1171   77.1211   81.4219 H   0  0  0  0  0  0
   34.3105   71.7821   84.0825 H   0  0  0  0  0  0
   31.7173   73.3992   87.9736 H   0  0  0  0  0  0
   30.7955   73.6449   85.7284 H   0  0  0  0  0  0
   21.4644   78.4154   84.5047 H   0  0  0  0  0  0
   21.8795   76.7520   84.2689 H   0  0  0  0  0  0
   22.5409   77.5499   81.7965 H   0  0  0  0  0  0
   21.4943   78.8826   82.1633 H   0  0  0  0  0  0
   20.8427   76.0190   81.6170 H   0  0  0  0  0  0
   19.9972   77.4440   81.1298 H   0  0  0  0  0  0
   19.8536   76.0972   83.8892 H   0  0  0  0  0  0
   18.6064   76.1206   82.6746 H   0  0  0  0  0  0
   18.3574   77.7786   84.4194 H   0  0  0  0  0  0
   19.7298   78.5038   83.9513 H   0  0  0  0  0  0
   30.3831   71.4239   83.3469 H   0  0  0  0  0  0
   30.2637   72.4908   81.9898 H   0  0  0  0  0  0
   32.5886   72.3450   82.6184 H   0  0  0  0  0  0
   32.1090   73.9607   83.0139 H   0  0  0  0  0  0
   24.4415   74.6523   87.8294 H   0  0  0  0  0  0
   24.1446   75.4613   89.3548 H   0  0  0  0  0  0
   22.9501   75.5511   88.0703 H   0  0  0  0  0  0
   24.4939   79.0030   88.1008 H   0  0  0  0  0  0
   22.9827   78.1130   88.2561 H   0  0  0  0  0  0
   24.1973   78.0177   89.5185 H   0  0  0  0  0  0
   26.7294   77.6994   87.7578 H   0  0  0  0  0  0
   26.3554   76.7436   89.1841 H   0  0  0  0  0  0
   26.7259   75.9484   87.6662 H   0  0  0  0  0  0
  1  2  1  0  0  0
  1 27  2  0  0  0
  1 35  1  0  0  0
  2  3  1  0  0  0
  2 39  1  0  0  0
  3  4  1  0  0  0
  3 28  1  0  0  0
  3 40  1  0  0  0
  4  5  1  0  0  0
  4 26  2  0  0  0
  5  6  2  0  0  0
  5  9  1  0  0  0
  6  7  1  0  0  0
  7  8  1  0  0  0
  8  9  2  0  0  0
  8 10  1  0  0  0
 10 11  1  0  0  0
 10 41  1  0  0  0
 10 42  1  0  0  0
 11 12  2  0  0  0
 11 16  1  0  0  0
 12 13  1  0  0  0
 12 43  1  0  0  0
 13 14  2  0  0  0
 13 44  1  0  0  0
 14 15  1  0  0  0
 14 17  1  0  0  0
 15 16  2  0  0  0
 15 45  1  0  0  0
 16 46  1  0  0  0
 17 33  1  0  0  0
 18 19  2  0  0  0
 18 23  1  0  0  0
 18 34  1  0  0  0
 19 20  1  0  0  0
 19 47  1  0  0  0
 20 21  2  0  0  0
 20 24  1  0  0  0
 21 22  1  0  0  0
 21 25  1  0  0  0
 22 23  2  0  0  0
 22 48  1  0  0  0
 23 49  1  0  0  0
 28 29  1  0  0  0
 28 50  1  0  0  0
 28 51  1  0  0  0
 29 30  1  0  0  0
 29 52  1  0  0  0
 29 53  1  0  0  0
 30 31  1  0  0  0
 30 54  1  0  0  0
 30 55  1  0  0  0
 31 32  1  0  0  0
 31 56  1  0  0  0
 31 57  1  0  0  0
 32 58  1  0  0  0
 32 59  1  0  0  0
 33 34  1  0  0  0
 33 60  1  0  0  0
 33 61  1  0  0  0
 34 62  1  0  0  0
 34 63  1  0  0  0
 35 36  1  0  0  0
 35 37  1  0  0  0
 35 38  1  0  0  0
 36 64  1  0  0  0
 36 65  1  0  0  0
 36 66  1  0  0  0
 37 67  1  0  0  0
 37 68  1  0  0  0
 37 69  1  0  0  0
 38 70  1  0  0  0
 38 71  1  0  0  0
 38 72  1  0  0  0
M  END
> <s_m_entry_id>
40580

> <s_m_entry_name>
dock_pv.36

> <s_m_Source_Path>
/home/csk/Desktop/cluster/DUD-E-result/tryb1

> <s_m_Source_File>
dock_pv.maegz

> <i_m_Source_File_Index>
36

> <chembl_id>
CHEMBL556994

> <chembl_pref_name>
None

> <i_lp_mmshare_version>
53161

> <r_lp_tautomer_probability>
0.99990000499975

> <s_lp_Force_Field>
OPLS_2005

> <r_lp_Energy>
22.40371

> <b_lp_Chiralities_Consistent>
1

> <s_lp_Variant>
CHEMBL2617_lig137-1

> <s_i_glide_gridfile>
glide-grid_2zec

> <i_i_glide_lignum>
164

> <i_i_glide_rotatable_bonds>
15

> <r_i_docking_score>
-6.82191018570558

> <r_i_glide_ligand_efficiency>
-0.17952395225541

> <r_i_glide_ligand_efficiency_sa>
-0.603555111682212

> <r_i_glide_ligand_efficiency_ln>
-1.47100451630382

> <r_i_glide_gscore>
-6.82191018570558

> <r_i_glide_lipo>
-3.01199967174879

> <r_i_glide_hbond>
-0.261752655116235

> <r_i_glide_metal>
0

> <r_i_glide_rewards>
-0.579757778629532

> <r_i_glide_evdw>
-48.2432098388672

> <r_i_glide_ecoul>
-8.44427108764648

> <r_i_glide_erotb>
0.710401074879305

> <r_i_glide_esite>
0

> <r_i_glide_emodel>
-74.7408870404883

> <r_i_glide_energy>
-56.6874809265137

> <r_i_glide_einternal>
12.0295324325562

> <i_i_glide_confnum>
13

> <i_i_glide_posenum>
333

> <r_i_glide_eff_state_penalty>
0

> <s_user_duplicate_titles>
CHEMBL2617_lig137

> <i_f3d_flags>
0

> <s_m_subgroup_title>
dock_pv

> <s_m_subgroupid>
dock_pv

> <b_m_subgroup_collapsed>
1

$$$$
CHEMBL2617_lig139
                    3D
 Schrodinger Suite 2021-1.
 75 78  0  0  1  0            999 V2000
   24.5474   76.7106   86.1016 C   0  0  0  0  0  0
   23.7465   77.6968   85.6488 N   0  0  0  0  0  0
   23.5465   78.0657   84.2440 C   0  0  2  0  0  0
   23.8726   79.5525   84.1518 C   0  0  0  0  0  0
   25.2163   79.9687   83.7356 C   0  0  0  0  0  0
   25.5504   81.2360   83.5768 N   0  0  0  0  0  0
   26.8984   81.1881   83.2269 O   0  0  0  0  0  0
   27.2034   79.8701   83.2174 C   0  0  0  0  0  0
   26.1841   79.1048   83.4930 N   0  0  0  0  0  0
   28.6376   79.4728   82.9114 C   0  0  0  0  0  0
   28.9443   77.9765   82.9939 C   0  0  0  0  0  0
   28.5855   77.2358   84.1239 C   0  0  0  0  0  0
   28.8703   75.8761   84.1868 C   0  0  0  0  0  0
   29.5268   75.2361   83.1367 C   0  0  0  0  0  0
   29.9136   75.9890   82.0170 C   0  0  0  0  0  0
   29.6203   77.3483   81.9469 C   0  0  0  0  0  0
   29.7631   73.8873   83.3181 O   0  0  0  0  0  0
   32.6195   72.8590   83.2170 C   0  0  0  0  0  0
   33.3293   72.3812   84.3212 C   0  0  0  0  0  0
   34.5344   72.9584   84.7124 C   0  0  0  0  0  0
   35.0500   74.0413   83.9899 C   0  0  0  0  0  0
   34.3431   74.5362   82.8920 C   0  0  0  0  0  0
   33.1342   73.9521   82.5083 C   0  0  0  0  0  0
   35.3500   72.3011   86.0885 Cl  0  0  0  0  0  0
   36.5498   74.7824   84.4281 Cl  0  0  0  0  0  0
   23.0036   80.3861   84.4170 O   0  0  0  0  0  0
   25.4501   76.2368   85.4089 O   0  0  0  0  0  0
   22.0818   77.7545   83.8575 C   0  0  0  0  0  0
   21.8612   77.8289   82.3448 C   0  0  0  0  0  0
   20.5242   77.2223   81.9197 C   0  0  0  0  0  0
   20.2765   77.3165   80.4170 C   0  0  0  0  0  0
   21.3500   76.7520   79.6170 N   0  0  0  0  0  0
   30.2165   73.0509   82.2537 C   0  0  0  0  0  0
   31.3376   72.1437   82.7840 C   0  0  0  0  0  0
   24.1598   76.1557   87.2842 N   0  0  0  0  0  0
   23.3498   76.8751   88.2882 C   0  0  0  0  0  0
   24.3308   77.5971   89.2406 C   0  0  0  0  0  0
   25.3308   76.6116   89.8837 C   0  0  0  0  0  0
   25.9941   75.7028   88.8258 C   0  0  0  0  0  0
   24.9509   75.0609   87.8792 C   0  0  0  0  0  0
   23.1188   78.1402   86.3014 H   0  0  0  0  0  0
   24.2023   77.4792   83.5989 H   0  0  0  0  0  0
   28.9146   79.8592   81.9299 H   0  0  0  0  0  0
   29.3020   79.9784   83.6126 H   0  0  0  0  0  0
   28.0713   77.7044   84.9509 H   0  0  0  0  0  0
   28.5727   75.3107   85.0574 H   0  0  0  0  0  0
   30.4486   75.5615   81.1865 H   0  0  0  0  0  0
   29.9235   77.9086   81.0742 H   0  0  0  0  0  0
   32.9500   71.5520   84.8890 H   0  0  0  0  0  0
   34.7383   75.3673   82.3261 H   0  0  0  0  0  0
   32.6236   74.3402   81.6403 H   0  0  0  0  0  0
   21.8291   76.7520   84.1895 H   0  0  0  0  0  0
   21.3727   78.4082   84.3694 H   0  0  0  0  0  0
   21.9295   78.8626   82.0031 H   0  0  0  0  0  0
   22.6663   77.2833   81.8537 H   0  0  0  0  0  0
   20.4690   76.1799   82.2199 H   0  0  0  0  0  0
   19.7162   77.7325   82.4432 H   0  0  0  0  0  0
   19.3479   76.8070   80.1640 H   0  0  0  0  0  0
   20.1552   78.3520   80.1139 H   0  0  0  0  0  0
   21.0496   76.8965   78.6550 H   0  0  0  0  0  0
   22.1878   77.3240   79.7235 H   0  0  0  0  0  0
   29.3700   72.4338   81.9489 H   0  0  0  0  0  0
   30.5500   73.5423   81.3455 H   0  0  0  0  0  0
   30.9378   71.5655   83.6170 H   0  0  0  0  0  0
   31.5995   71.4177   82.0170 H   0  0  0  0  0  0
   22.7889   76.1052   88.8170 H   0  0  0  0  0  0
   22.5677   77.5009   87.8576 H   0  0  0  0  0  0
   23.7715   78.1182   90.0170 H   0  0  0  0  0  0
   24.8672   78.3765   88.6960 H   0  0  0  0  0  0
   26.0921   77.1568   90.4435 H   0  0  0  0  0  0
   24.8066   75.9885   90.6096 H   0  0  0  0  0  0
   26.7181   76.2731   88.2404 H   0  0  0  0  0  0
   26.5691   74.9201   89.3218 H   0  0  0  0  0  0
   24.2581   74.4352   88.4443 H   0  0  0  0  0  0
   25.3585   74.3860   87.1261 H   0  0  0  0  0  0
  1 27  2  0  0  0
  1  2  1  0  0  0
  1 35  1  0  0  0
  2  3  1  0  0  0
  2 41  1  0  0  0
  3 28  1  0  0  0
  3  4  1  0  0  0
  3 42  1  0  0  0
  4 26  2  0  0  0
  4  5  1  0  0  0
  5  9  1  0  0  0
  5  6  2  0  0  0
  6  7  1  0  0  0
  7  8  1  0  0  0
  8  9  2  0  0  0
  8 10  1  0  0  0
 10 11  1  0  0  0
 10 43  1  0  0  0
 10 44  1  0  0  0
 11 12  2  0  0  0
 11 16  1  0  0  0
 12 13  1  0  0  0
 12 45  1  0  0  0
 13 14  2  0  0  0
 13 46  1  0  0  0
 14 15  1  0  0  0
 14 17  1  0  0  0
 15 16  2  0  0  0
 15 47  1  0  0  0
 16 48  1  0  0  0
 17 33  1  0  0  0
 18 19  2  0  0  0
 18 23  1  0  0  0
 18 34  1  0  0  0
 19 20  1  0  0  0
 19 49  1  0  0  0
 20 21  2  0  0  0
 20 24  1  0  0  0
 21 22  1  0  0  0
 21 25  1  0  0  0
 22 23  2  0  0  0
 22 50  1  0  0  0
 23 51  1  0  0  0
 28 29  1  0  0  0
 28 52  1  0  0  0
 28 53  1  0  0  0
 29 30  1  0  0  0
 29 54  1  0  0  0
 29 55  1  0  0  0
 30 31  1  0  0  0
 30 56  1  0  0  0
 30 57  1  0  0  0
 31 32  1  0  0  0
 31 58  1  0  0  0
 31 59  1  0  0  0
 32 60  1  0  0  0
 32 61  1  0  0  0
 33 34  1  0  0  0
 33 62  1  0  0  0
 33 63  1  0  0  0
 34 64  1  0  0  0
 34 65  1  0  0  0
 35 36  1  0  0  0
 35 40  1  0  0  0
 36 37  1  0  0  0
 36 66  1  0  0  0
 36 67  1  0  0  0
 37 38  1  0  0  0
 37 68  1  0  0  0
 37 69  1  0  0  0
 38 39  1  0  0  0
 38 70  1  0  0  0
 38 71  1  0  0  0
 39 40  1  0  0  0
 39 72  1  0  0  0
 39 73  1  0  0  0
 40 74  1  0  0  0
 40 75  1  0  0  0
M  END
> <s_m_entry_id>
40581

> <s_m_entry_name>
dock_pv.37

> <s_m_Source_Path>
/home/csk/Desktop/cluster/DUD-E-result/tryb1

> <s_m_Source_File>
dock_pv.maegz

> <i_m_Source_File_Index>
37

> <chembl_id>
CHEMBL535617

> <chembl_pref_name>
None

> <i_lp_mmshare_version>
53161

> <r_lp_tautomer_probability>
0.99990000499975

> <s_lp_Force_Field>
OPLS_2005

> <r_lp_Energy>
46.096963

> <b_lp_Chiralities_Consistent>
1

> <s_lp_Variant>
CHEMBL2617_lig139-1

> <s_i_glide_gridfile>
glide-grid_2zec

> <i_i_glide_lignum>
166

> <i_i_glide_rotatable_bonds>
15

> <r_i_docking_score>
-6.80563193234429

> <r_i_glide_ligand_efficiency>
-0.170140798308607

> <r_i_glide_ligand_efficiency_sa>
-0.581873344596692

> <r_i_glide_ligand_efficiency_ln>
-1.4514410103619

> <r_i_glide_gscore>
-6.80563193234429

> <r_i_glide_lipo>
-2.62740922821897

> <r_i_glide_hbond>
-0.419341198531992

> <r_i_glide_metal>
0

> <r_i_glide_rewards>
-0.791927809341759

> <r_i_glide_evdw>
-49.6721229553223

> <r_i_glide_ecoul>
-7.34562015533447

> <r_i_glide_erotb>
0.618495474814717

> <r_i_glide_esite>
0

> <r_i_glide_emodel>
-74.1437800114174

> <r_i_glide_energy>
-57.0177431106567

> <r_i_glide_einternal>
13.2106266021729

> <i_i_glide_confnum>
5

> <i_i_glide_posenum>
379

> <r_i_glide_eff_state_penalty>
0

> <s_user_duplicate_titles>
CHEMBL2617_lig139

> <i_f3d_flags>
0

> <s_m_subgroup_title>
dock_pv

> <s_m_subgroupid>
dock_pv

> <b_m_subgroup_collapsed>
1

$$$$
183007
                    3D
 Schrodinger Suite 2021-1.
 72 77  0  0  1  0            999 V2000
   33.7379   74.8109   81.9753 C   0  0  0  0  0  0
   34.2045   74.3486   83.2075 C   0  0  0  0  0  0
   33.2408   73.9573   84.1408 C   0  0  0  0  0  0
   31.8589   73.9798   83.8672 C   0  0  0  0  0  0
   31.4242   74.4191   82.6088 C   0  0  0  0  0  0
   32.3669   74.8636   81.6610 C   0  0  0  0  0  0
   31.8991   75.4060   80.3688 C   0  0  0  0  0  0
   30.9597   76.2456   80.3415 N   0  0  0  0  0  0
   32.5501   74.8808   79.2842 N   0  0  0  0  0  0
   31.2382   73.5046   85.0602 C   0  0  0  0  0  0
   32.2548   73.3689   86.0129 C   0  0  0  0  0  0
   33.4786   73.5366   85.4184 O   0  0  0  0  0  0
   32.2455   72.9679   87.4132 C   0  0  0  0  0  0
   33.2192   72.3519   87.8563 O   0  0  0  0  0  0
   31.1710   73.3113   88.1891 N   0  0  0  0  0  0
   30.1181   74.2576   87.7469 C   0  0  0  0  0  0
   29.4361   74.8966   88.9775 C   0  0  0  0  0  0
   28.8171   73.7838   89.7387 N   0  0  0  0  0  0
   29.6668   72.5943   90.0003 C   0  0  0  0  0  0
   31.1415   72.8751   89.6057 C   0  0  0  0  0  0
   27.4890   73.7369   90.0660 C   0  0  0  0  0  0
   26.9528   72.7525   90.5856 O   0  0  0  0  0  0
   26.7611   74.8448   89.8016 N   0  0  0  0  0  0
   26.2832   75.6768   90.9144 C   0  0  0  0  0  0
   26.2455   77.1526   90.4420 C   0  0  0  0  0  0
   25.4730   77.2437   89.1878 N   0  0  0  0  0  0
   25.9962   76.4165   88.0814 C   0  0  0  0  0  0
   26.0300   74.9360   88.5294 C   0  0  0  0  0  0
   24.4005   78.0786   89.0908 C   0  0  0  0  0  0
   23.9689   78.7548   90.0271 O   0  0  0  0  0  0
   23.7166   78.1291   87.8260 C   0  0  0  0  0  0
   22.5648   77.4733   87.4139 C   0  0  0  0  0  0
   22.3722   77.8310   86.0495 C   0  0  0  0  0  0
   21.4125   77.5519   85.0750 C   0  0  0  0  0  0
   21.5791   78.0328   83.7588 C   0  0  0  0  0  0
   22.7256   78.7941   83.4563 C   0  0  0  0  0  0
   23.6861   79.1212   84.4175 C   0  0  0  0  0  0
   23.4835   78.6266   85.7086 C   0  0  0  0  0  0
   24.3009   78.8071   86.7906 O   0  0  0  0  0  0
   20.5321   77.7492   82.7466 C   0  0  0  0  0  0
   19.3500   77.5524   83.1290 N   0  0  0  0  0  0
   20.9536   77.7267   81.4401 N   0  0  0  0  0  0
   34.4664   75.1506   81.2504 H   0  0  0  0  0  0
   35.2593   74.3200   83.4386 H   0  0  0  0  0  0
   30.3666   74.4369   82.3844 H   0  0  0  0  0  0
   30.6473   76.4837   81.2702 H   0  0  0  0  0  0
   32.2373   75.1376   78.3608 H   0  0  0  0  0  0
   33.4053   74.3520   79.3809 H   0  0  0  0  0  0
   30.1842   73.3389   85.2173 H   0  0  0  0  0  0
   30.5456   75.0668   87.1515 H   0  0  0  0  0  0
   29.3663   73.7246   87.1634 H   0  0  0  0  0  0
   28.7268   75.6407   88.6222 H   0  0  0  0  0  0
   30.1730   75.4049   89.6005 H   0  0  0  0  0  0
   29.3429   71.7535   89.3896 H   0  0  0  0  0  0
   29.6432   72.3377   91.0611 H   0  0  0  0  0  0
   31.7026   71.9554   89.7567 H   0  0  0  0  0  0
   31.5292   73.6730   90.2404 H   0  0  0  0  0  0
   25.2666   75.3732   91.1638 H   0  0  0  0  0  0
   26.9218   75.5812   91.7935 H   0  0  0  0  0  0
   25.8508   77.7943   91.2306 H   0  0  0  0  0  0
   27.2594   77.4962   90.2359 H   0  0  0  0  0  0
   27.0055   76.7632   87.8609 H   0  0  0  0  0  0
   25.4257   76.5077   87.1560 H   0  0  0  0  0  0
   26.5008   74.3469   87.7459 H   0  0  0  0  0  0
   25.0041   74.6033   88.6911 H   0  0  0  0  0  0
   21.9571   76.8198   88.0170 H   0  0  0  0  0  0
   20.5633   76.9393   85.3444 H   0  0  0  0  0  0
   22.8797   79.1536   82.4493 H   0  0  0  0  0  0
   24.5506   79.7203   84.1740 H   0  0  0  0  0  0
   19.2684   77.6382   84.1291 H   0  0  0  0  0  0
   20.2656   77.6350   80.7044 H   0  0  0  0  0  0
   21.9082   77.9357   81.1808 H   0  0  0  0  0  0
  1  6  1  0  0  0
  1  2  2  0  0  0
  1 43  1  0  0  0
  2  3  1  0  0  0
  2 44  1  0  0  0
  3 12  1  0  0  0
  3  4  2  0  0  0
  4  5  1  0  0  0
  4 10  1  0  0  0
  5  6  2  0  0  0
  5 45  1  0  0  0
  6  7  1  0  0  0
  7  8  2  3  0  0
  7  9  1  0  0  0
  8 46  1  0  0  0
  9 47  1  0  0  0
  9 48  1  0  0  0
 10 11  2  0  0  0
 10 49  1  0  0  0
 11 12  1  0  0  0
 11 13  1  0  0  0
 13 14  2  0  0  0
 13 15  1  0  0  0
 15 20  1  0  0  0
 15 16  1  0  0  0
 16 17  1  0  0  0
 16 50  1  0  0  0
 16 51  1  0  0  0
 17 18  1  0  0  0
 17 52  1  0  0  0
 17 53  1  0  0  0
 18 19  1  0  0  0
 18 21  1  0  0  0
 19 20  1  0  0  0
 19 54  1  0  0  0
 19 55  1  0  0  0
 20 56  1  0  0  0
 20 57  1  0  0  0
 21 22  2  0  0  0
 21 23  1  0  0  0
 23 28  1  0  0  0
 23 24  1  0  0  0
 24 25  1  0  0  0
 24 58  1  0  0  0
 24 59  1  0  0  0
 25 26  1  0  0  0
 25 60  1  0  0  0
 25 61  1  0  0  0
 26 27  1  0  0  0
 26 29  1  0  0  0
 27 28  1  0  0  0
 27 62  1  0  0  0
 27 63  1  0  0  0
 28 64  1  0  0  0
 28 65  1  0  0  0
 29 30  2  0  0  0
 29 31  1  0  0  0
 31 39  1  0  0  0
 31 32  2  0  0  0
 32 33  1  0  0  0
 32 66  1  0  0  0
 33 38  2  0  0  0
 33 34  1  0  0  0
 34 35  2  0  0  0
 34 67  1  0  0  0
 35 36  1  0  0  0
 35 40  1  0  0  0
 36 37  2  0  0  0
 36 68  1  0  0  0
 37 38  1  0  0  0
 37 69  1  0  0  0
 38 39  1  0  0  0
 40 41  2  3  0  0
 40 42  1  0  0  0
 41 70  1  0  0  0
 42 71  1  0  0  0
 42 72  1  0  0  0
M  END
> <s_m_entry_id>
40697

> <s_m_entry_name>
ligand_docking-pose.1

> <s_m_Source_Path>
/home/csk/Desktop/cluster/DUD-E-result/tryb1

> <s_m_Source_File>
ligand_docking-pose.sdf

> <i_m_Source_File_Index>
1

> <i_lp_mmshare_version>
53161

> <i_f3d_flags>
0

> <r_lp_tautomer_probability>
1

> <s_lp_Force_Field>
OPLS_2005

> <r_lp_Energy>
114.77754

> <b_lp_Chiralities_Consistent>
1

> <s_lp_Variant>
183007-3

> <s_i_glide_gridfile>
glide-grid_2zec

> <i_i_glide_lignum>
5

> <i_i_glide_rotatable_bonds>
8

> <r_i_docking_score>
-8.09601642153949

> <r_i_glide_ligand_efficiency>
-0.19276229575094

> <r_i_glide_ligand_efficiency_sa>
-0.670046875324946

> <r_i_glide_ligand_efficiency_ln>
-1.70886048919405

> <r_i_glide_gscore>
-8.09601642153949

> <r_i_glide_lipo>
-2.23325913554783

> <r_i_glide_hbond>
-0.635987588796467

> <r_i_glide_metal>
0

> <r_i_glide_rewards>
-1.04489411808429

> <r_i_glide_evdw>
-54.8964958190918

> <r_i_glide_ecoul>
-11.5127267837524

> <r_i_glide_erotb>
0.293763036665627

> <r_i_glide_esite>
-0.00390480725907281

> <r_i_glide_emodel>
-92.3639776329498

> <r_i_glide_energy>
-66.4092226028442

> <r_i_glide_einternal>
11.4036436080933

> <i_i_glide_confnum>
5

> <i_i_glide_posenum>
139

> <r_i_glide_eff_state_penalty>
0

> <s_user_duplicate_titles>
183007

> <s_m_subgroup_title>
dock_pv

> <s_m_subgroupid>
dock_pv1

> <b_m_subgroup_collapsed>
0

$$$$
354268
                    3D
 Schrodinger Suite 2021-1.
 56 60  0  0  1  0            999 V2000
   26.0667   77.3957   85.4946 C   0  0  0  0  0  0
   26.9168   77.7578   84.3685 N   0  0  0  0  0  0
   27.8724   76.9446   83.7893 C   0  0  0  0  0  0
   28.3283   75.6506   84.0595 C   0  0  0  0  0  0
   29.3411   75.1261   83.2364 C   0  0  0  0  0  0
   29.8817   75.9143   82.2024 C   0  0  0  0  0  0
   29.4256   77.2060   81.9374 C   0  0  0  0  0  0
   28.3934   77.7177   82.7303 C   0  0  0  0  0  0
   27.7463   78.9160   82.6279 N   0  0  0  0  0  0
   26.8345   78.8966   83.5741 C   0  0  0  0  0  0
   25.8358   80.0407   83.7895 C   0  0  0  0  0  0
   24.3992   79.5260   83.8661 C   0  0  0  0  0  0
   23.7367   78.9180   82.8173 N   0  0  0  0  0  0
   22.4805   78.5653   83.2633 C   0  0  0  0  0  0
   22.4855   78.9823   84.6177 C   0  0  0  0  0  0
   23.6641   79.5893   84.9497 N   0  0  0  0  0  0
   21.3649   78.7511   85.4231 C   0  0  0  0  0  0
   20.2609   78.1173   84.8554 C   0  0  0  0  0  0
   20.2589   77.7274   83.5164 C   0  0  0  0  0  0
   21.3634   77.9477   82.6820 C   0  0  0  0  0  0
   21.3500   77.5780   81.3588 O   0  0  0  0  0  0
   19.1530   77.1263   83.0251 F   0  0  0  0  0  0
   21.3499   79.1410   86.7169 F   0  0  0  0  0  0
   26.1643   80.7050   84.8994 F   0  0  0  0  0  0
   25.9174   80.9367   82.8047 F   0  0  0  0  0  0
   29.8325   73.7139   83.5029 C   0  0  0  0  0  0
   29.3500   73.0421   84.4166 O   0  0  0  0  0  0
   30.8211   73.2458   82.7177 N   0  0  0  0  0  0
   31.5236   71.9787   82.9323 C   0  0  0  0  0  0
   32.8158   72.1380   83.7614 C   0  0  0  0  0  0
   32.4946   72.7351   85.0180 O   0  0  0  0  0  0
   33.3487   72.6048   86.0921 C   0  0  0  0  0  0
   34.6582   72.1040   86.0159 C   0  0  0  0  0  0
   35.4352   72.0127   87.1690 C   0  0  0  0  0  0
   34.9137   72.4278   88.3913 C   0  0  0  0  0  0
   33.6166   72.9264   88.4722 C   0  0  0  0  0  0
   32.8381   73.0131   87.3231 C   0  0  0  0  0  0
   35.6715   72.3524   89.5080 F   0  0  0  0  0  0
   24.1364   78.7781   81.8966 H   0  0  0  0  0  0
   25.8139   78.2869   86.0737 H   0  0  0  0  0  0
   25.1555   76.9214   85.1214 H   0  0  0  0  0  0
   26.5943   76.7010   86.1526 H   0  0  0  0  0  0
   27.9066   75.0710   84.8674 H   0  0  0  0  0  0
   30.6690   75.5340   81.5675 H   0  0  0  0  0  0
   29.8415   77.7866   81.1258 H   0  0  0  0  0  0
   19.3812   77.9447   85.4575 H   0  0  0  0  0  0
   22.0605   77.9501   80.8189 H   0  0  0  0  0  0
   31.1045   73.7932   81.9203 H   0  0  0  0  0  0
   31.7502   71.5534   81.9577 H   0  0  0  0  0  0
   30.8670   71.2500   83.4120 H   0  0  0  0  0  0
   33.5356   72.7674   83.2355 H   0  0  0  0  0  0
   33.2655   71.1548   83.8959 H   0  0  0  0  0  0
   35.0844   71.7949   85.0741 H   0  0  0  0  0  0
   36.4451   71.6338   87.1186 H   0  0  0  0  0  0
   33.2147   73.2419   89.4229 H   0  0  0  0  0  0
   31.8314   73.4011   87.3827 H   0  0  0  0  0  0
  1  2  1  0  0  0
  1 40  1  0  0  0
  1 41  1  0  0  0
  1 42  1  0  0  0
  2 10  1  0  0  0
  2  3  1  0  0  0
  3  8  2  0  0  0
  3  4  1  0  0  0
  4  5  2  0  0  0
  4 43  1  0  0  0
  5  6  1  0  0  0
  5 26  1  0  0  0
  6  7  2  0  0  0
  6 44  1  0  0  0
  7  8  1  0  0  0
  7 45  1  0  0  0
  8  9  1  0  0  0
  9 10  2  0  0  0
 10 11  1  0  0  0
 11 12  1  0  0  0
 11 24  1  0  0  0
 11 25  1  0  0  0
 12 16  2  0  0  0
 12 13  1  0  0  0
 13 39  1  0  0  0
 13 14  1  0  0  0
 14 20  2  0  0  0
 14 15  1  0  0  0
 15 16  1  0  0  0
 15 17  2  0  0  0
 17 18  1  0  0  0
 17 23  1  0  0  0
 18 19  2  0  0  0
 18 46  1  0  0  0
 19 20  1  0  0  0
 19 22  1  0  0  0
 20 21  1  0  0  0
 21 47  1  0  0  0
 26 27  2  0  0  0
 26 28  1  0  0  0
 28 29  1  0  0  0
 28 48  1  0  0  0
 29 30  1  0  0  0
 29 49  1  0  0  0
 29 50  1  0  0  0
 30 31  1  0  0  0
 30 51  1  0  0  0
 30 52  1  0  0  0
 31 32  1  0  0  0
 32 37  1  0  0  0
 32 33  2  0  0  0
 33 34  1  0  0  0
 33 53  1  0  0  0
 34 35  2  0  0  0
 34 54  1  0  0  0
 35 36  1  0  0  0
 35 38  1  0  0  0
 36 37  2  0  0  0
 36 55  1  0  0  0
 37 56  1  0  0  0
M  END
> <s_m_entry_id>
40699

> <s_m_entry_name>
ligand_docking-pose.3

> <s_m_Source_Path>
/home/csk/Desktop/cluster/DUD-E-result/tryb1

> <s_m_Source_File>
ligand_docking-pose.sdf

> <i_m_Source_File_Index>
3

> <i_lp_mmshare_version>
53161

> <i_f3d_flags>
0

> <r_lp_tautomer_probability>
1

> <s_lp_Force_Field>
OPLS_2005

> <r_lp_Energy>
27.946784

> <b_lp_Chiralities_Consistent>
1

> <s_lp_Variant>
354268-1

> <s_i_glide_gridfile>
glide-grid_2zec

> <i_i_glide_lignum>
282

> <i_i_glide_rotatable_bonds>
9

> <r_i_docking_score>
-7.83466149576069

> <r_i_glide_ligand_efficiency>
-0.206175302520018

> <r_i_glide_ligand_efficiency_sa>
-0.693156295721166

> <r_i_glide_ligand_efficiency_ln>
-1.68938349087684

> <r_i_glide_gscore>
-7.83466149576069

> <r_i_glide_lipo>
-3.07920658258434

> <r_i_glide_hbond>
-0.634972532918018

> <r_i_glide_metal>
0

> <r_i_glide_rewards>
-0.729521990469767

> <r_i_glide_evdw>
-51.2058868408203

> <r_i_glide_ecoul>
-8.60366916656494

> <r_i_glide_erotb>
0.511077335512044

> <r_i_glide_esite>
-0.0511930082748519

> <r_i_glide_emodel>
-86.7573926075712

> <r_i_glide_energy>
-59.8095560073853

> <r_i_glide_einternal>
1.35875713825226

> <i_i_glide_confnum>
2

> <i_i_glide_posenum>
220

> <r_i_glide_eff_state_penalty>
0

> <s_user_duplicate_titles>
354268

> <s_m_subgroup_title>
dock_pv

> <s_m_subgroupid>
dock_pv1

> <b_m_subgroup_collapsed>
0

$$$$
182514
                    3D
 Schrodinger Suite 2021-1.
 72 76  0  0  1  0            999 V2000
   30.7149   72.8349   89.5248 C   0  0  0  0  0  0
   29.7673   73.0904   90.5087 C   0  0  0  0  0  0
   29.7796   74.3053   91.2071 C   0  0  0  0  0  0
   30.7673   75.2452   90.9113 C   0  0  0  0  0  0
   31.7171   74.9898   89.9253 C   0  0  0  0  0  0
   31.7052   73.7837   89.2231 C   0  0  0  0  0  0
   32.6884   73.6019   88.2649 O   0  0  0  0  0  0
   32.7794   72.3193   87.6453 C   0  0  0  0  0  0
   34.0635   72.2033   86.8037 C   0  0  0  0  0  0
   34.9992   71.5559   87.2851 O   0  0  0  0  0  0
   34.0737   72.6516   85.5197 N   0  0  0  0  0  0
   35.2069   72.3163   84.6290 C   0  0  0  0  0  0
   35.7488   73.5971   83.9522 C   0  0  0  0  0  0
   34.6862   74.3690   83.3163 N   0  0  0  0  0  0
   33.6528   74.7460   84.2746 C   0  0  0  0  0  0
   33.0108   73.5227   84.9732 C   0  0  0  0  0  0
   28.8715   74.6456   92.1943 O   0  0  0  0  0  0
   27.6955   73.8529   92.4430 C   0  0  0  0  0  0
   26.7137   73.8208   91.2442 C   0  0  0  0  0  0
   26.1492   72.7517   91.0047 O   0  0  0  0  0  0
   26.5327   74.9184   90.4629 N   0  0  0  0  0  0
   25.8674   74.8109   89.1503 C   0  0  0  0  0  0
   24.5423   75.6058   89.2008 C   0  0  0  0  0  0
   24.8288   76.9930   89.6279 N   0  0  0  0  0  0
   25.4785   77.0675   90.9528 C   0  0  0  0  0  0
   26.8194   76.2934   90.9160 C   0  0  0  0  0  0
   25.0514   78.0004   88.7337 C   0  0  0  0  0  0
   25.9060   78.8739   88.9133 O   0  0  0  0  0  0
   24.2168   78.0523   87.5485 C   0  0  0  0  0  0
   22.9514   77.5296   87.2689 C   0  0  0  0  0  0
   22.6345   77.9250   85.9364 C   0  0  0  0  0  0
   21.5906   77.6805   85.0387 C   0  0  0  0  0  0
   21.6325   78.2393   83.7471 C   0  0  0  0  0  0
   22.7087   79.0801   83.3988 C   0  0  0  0  0  0
   23.7589   79.3538   84.2772 C   0  0  0  0  0  0
   23.7015   78.7501   85.5335 C   0  0  0  0  0  0
   24.6368   78.8548   86.5217 O   0  0  0  0  0  0
   20.5376   77.9519   82.7985 C   0  0  0  0  0  0
   19.3517   77.8792   83.2240 N   0  0  0  0  0  0
   20.9500   77.7953   81.4980 N   0  0  0  0  0  0
   30.6614   71.8886   89.0096 H   0  0  0  0  0  0
   29.0276   72.3335   90.7105 H   0  0  0  0  0  0
   30.7904   76.1818   91.4478 H   0  0  0  0  0  0
   32.4706   75.7307   89.7022 H   0  0  0  0  0  0
   32.8150   71.5461   88.4131 H   0  0  0  0  0  0
   31.9032   72.1167   87.0255 H   0  0  0  0  0  0
   36.0293   71.8387   85.1583 H   0  0  0  0  0  0
   34.8569   71.6266   83.8587 H   0  0  0  0  0  0
   36.5211   73.3634   83.2167 H   0  0  0  0  0  0
   36.2102   74.2476   84.6967 H   0  0  0  0  0  0
   35.0749   75.1907   82.8711 H   0  0  0  0  0  0
   32.8995   75.3560   83.7729 H   0  0  0  0  0  0
   34.1288   75.3868   85.0171 H   0  0  0  0  0  0
   32.4309   72.9608   84.2387 H   0  0  0  0  0  0
   32.3271   73.9045   85.7304 H   0  0  0  0  0  0
   27.1724   74.2645   93.3068 H   0  0  0  0  0  0
   27.9978   72.8426   92.7231 H   0  0  0  0  0  0
   25.6799   73.7764   88.8590 H   0  0  0  0  0  0
   26.5250   75.2442   88.3950 H   0  0  0  0  0  0
   23.9224   75.1479   89.9730 H   0  0  0  0  0  0
   23.9765   75.5145   88.2758 H   0  0  0  0  0  0
   25.5694   78.0920   91.3210 H   0  0  0  0  0  0
   24.8363   76.5537   91.6674 H   0  0  0  0  0  0
   27.5073   76.7660   90.2136 H   0  0  0  0  0  0
   27.2707   76.3386   91.9062 H   0  0  0  0  0  0
   22.3522   76.9117   87.9217 H   0  0  0  0  0  0
   20.7794   77.0322   85.3376 H   0  0  0  0  0  0
   22.7395   79.5488   82.4233 H   0  0  0  0  0  0
   24.5835   79.9945   83.9954 H   0  0  0  0  0  0
   19.3113   78.0620   84.2156 H   0  0  0  0  0  0
   20.2547   77.7114   80.7676 H   0  0  0  0  0  0
   21.9151   77.9433   81.2290 H   0  0  0  0  0  0
  1  6  1  0  0  0
  1  2  2  0  0  0
  1 41  1  0  0  0
  2  3  1  0  0  0
  2 42  1  0  0  0
  3  4  2  0  0  0
  3 17  1  0  0  0
  4  5  1  0  0  0
  4 43  1  0  0  0
  5  6  2  0  0  0
  5 44  1  0  0  0
  6  7  1  0  0  0
  7  8  1  0  0  0
  8  9  1  0  0  0
  8 45  1  0  0  0
  8 46  1  0  0  0
  9 10  2  0  0  0
  9 11  1  0  0  0
 11 16  1  0  0  0
 11 12  1  0  0  0
 12 13  1  0  0  0
 12 47  1  0  0  0
 12 48  1  0  0  0
 13 14  1  0  0  0
 13 49  1  0  0  0
 13 50  1  0  0  0
 14 15  1  0  0  0
 14 51  1  0  0  0
 15 16  1  0  0  0
 15 52  1  0  0  0
 15 53  1  0  0  0
 16 54  1  0  0  0
 16 55  1  0  0  0
 17 18  1  0  0  0
 18 19  1  0  0  0
 18 56  1  0  0  0
 18 57  1  0  0  0
 19 20  2  0  0  0
 19 21  1  0  0  0
 21 26  1  0  0  0
 21 22  1  0  0  0
 22 23  1  0  0  0
 22 58  1  0  0  0
 22 59  1  0  0  0
 23 24  1  0  0  0
 23 60  1  0  0  0
 23 61  1  0  0  0
 24 25  1  0  0  0
 24 27  1  0  0  0
 25 26  1  0  0  0
 25 62  1  0  0  0
 25 63  1  0  0  0
 26 64  1  0  0  0
 26 65  1  0  0  0
 27 28  2  0  0  0
 27 29  1  0  0  0
 29 37  1  0  0  0
 29 30  2  0  0  0
 30 31  1  0  0  0
 30 66  1  0  0  0
 31 36  2  0  0  0
 31 32  1  0  0  0
 32 33  2  0  0  0
 32 67  1  0  0  0
 33 34  1  0  0  0
 33 38  1  0  0  0
 34 35  2  0  0  0
 34 68  1  0  0  0
 35 36  1  0  0  0
 35 69  1  0  0  0
 36 37  1  0  0  0
 38 39  2  3  0  0
 38 40  1  0  0  0
 39 70  1  0  0  0
 40 71  1  0  0  0
 40 72  1  0  0  0
M  END
> <s_m_entry_id>
40701

> <s_m_entry_name>
ligand_docking-pose.5

> <s_m_Source_Path>
/home/csk/Desktop/cluster/DUD-E-result/tryb1

> <s_m_Source_File>
ligand_docking-pose.sdf

> <i_m_Source_File_Index>
5

> <i_lp_mmshare_version>
53161

> <i_f3d_flags>
0

> <r_lp_tautomer_probability>
1

> <s_lp_Force_Field>
OPLS_2005

> <r_lp_Energy>
92.20065

> <b_lp_Chiralities_Consistent>
1

> <s_lp_Variant>
182514-2

> <s_i_glide_gridfile>
glide-grid_2zec

> <i_i_glide_lignum>
172

> <i_i_glide_rotatable_bonds>
11

> <r_i_docking_score>
-7.65838990425221

> <r_i_glide_ligand_efficiency>
-0.191459747606305

> <r_i_glide_ligand_efficiency_sa>
-0.654783125522008

> <r_i_glide_ligand_efficiency_ln>
-1.63330919022302

> <r_i_glide_gscore>
-7.65838990425221

> <r_i_glide_lipo>
-2.2655584008733

> <r_i_glide_hbond>
-1.19566614055252

> <r_i_glide_metal>
0

> <r_i_glide_rewards>
-0.462826840657138

> <r_i_glide_evdw>
-51.3934860229492

> <r_i_glide_ecoul>
-11.8544960021973

> <r_i_glide_erotb>
0.619712204942387

> <r_i_glide_esite>
-0.0062020256345772

> <r_i_glide_emodel>
-84.1614588749324

> <r_i_glide_energy>
-63.2479820251465

> <r_i_glide_einternal>
12.7576313018799

> <i_i_glide_confnum>
1

> <i_i_glide_posenum>
274

> <r_i_glide_eff_state_penalty>
0

> <s_user_duplicate_titles>
182514

> <s_m_subgroup_title>
dock_pv

> <s_m_subgroupid>
dock_pv1

> <b_m_subgroup_collapsed>
0

$$$$
181521
                    3D
 Schrodinger Suite 2021-1.
 57 59  0  0  1  0            999 V2000
   30.9461   73.1173   92.2793 C   0  0  0  0  0  0
   30.5835   72.7515   90.9845 C   0  0  0  0  0  0
   29.2492   72.8175   90.5943 C   0  0  0  0  0  0
   28.2817   73.2654   91.5004 C   0  0  0  0  0  0
   28.6516   73.6285   92.8016 C   0  0  0  0  0  0
   29.9855   73.5516   93.1899 C   0  0  0  0  0  0
   26.8464   73.3805   91.0684 C   0  0  0  0  0  0
   26.1561   72.3594   91.0113 O   0  0  0  0  0  0
   26.3663   74.6200   90.7794 N   0  0  0  0  0  0
   24.9446   74.8117   90.4403 C   0  0  0  0  0  0
   24.8523   75.2827   88.9685 C   0  0  0  0  0  0
   25.6791   76.4889   88.7990 N   0  0  0  0  0  0
   27.0978   76.2913   89.1413 C   0  0  0  0  0  0
   27.2222   75.8144   90.6134 C   0  0  0  0  0  0
   25.1033   77.6832   89.0790 C   0  0  0  0  0  0
   25.3125   78.2880   90.1312 O   0  0  0  0  0  0
   24.2688   78.1974   88.1464 N   0  0  0  0  0  0
   23.5776   79.5344   88.0760 C   0  0  1  0  0  0
   22.9085   79.0583   86.7522 C   0  0  2  0  0  0
   23.8190   77.8058   86.8799 C   0  0  0  0  0  0
   24.0534   76.8264   86.1719 O   0  0  0  0  0  0
   23.2451   79.9141   85.5023 C   0  0  0  0  0  0
   23.2070   79.2068   84.1284 C   0  0  0  0  0  0
   21.8634   78.5365   83.7953 C   0  0  0  0  0  0
   21.8944   78.0574   82.4168 N   0  0  0  0  0  0
   20.7859   77.3913   81.8395 C   0  0  0  0  0  0
   19.7500   77.0375   82.4513 N   0  0  0  0  0  0
   20.9500   77.1542   80.4665 N   0  0  0  0  0  0
   22.5529   79.8724   89.1954 C   0  0  0  0  0  0
   21.6651   80.6854   89.0597 O   0  0  0  0  0  0
   22.7983   79.1825   90.3468 O   0  0  0  0  0  0
   24.2963   80.3473   87.9573 H   0  0  0  0  0  0
   21.8420   78.8261   86.7858 H   0  0  0  0  0  0
   31.9803   73.0550   92.5813 H   0  0  0  0  0  0
   31.3353   72.4010   90.2912 H   0  0  0  0  0  0
   28.9733   72.5256   89.5886 H   0  0  0  0  0  0
   27.9129   73.9741   93.5110 H   0  0  0  0  0  0
   30.2763   73.8287   94.1931 H   0  0  0  0  0  0
   24.5499   75.5820   91.1030 H   0  0  0  0  0  0
   24.3436   73.9157   90.5962 H   0  0  0  0  0  0
   23.8369   75.3958   88.5792 H   0  0  0  0  0  0
   25.3030   74.4985   88.3583 H   0  0  0  0  0  0
   27.4567   75.4722   88.5172 H   0  0  0  0  0  0
   27.7180   77.1486   88.8759 H   0  0  0  0  0  0
   28.2711   75.6352   90.8505 H   0  0  0  0  0  0
   26.8697   76.5931   91.2918 H   0  0  0  0  0  0
   24.2323   80.3665   85.6166 H   0  0  0  0  0  0
   22.5495   80.7507   85.4630 H   0  0  0  0  0  0
   24.0098   78.4698   84.0645 H   0  0  0  0  0  0
   23.4338   79.9537   83.3641 H   0  0  0  0  0  0
   21.0444   79.2441   83.9247 H   0  0  0  0  0  0
   21.6616   77.7096   84.4789 H   0  0  0  0  0  0
   22.5310   78.5236   81.7880 H   0  0  0  0  0  0
   19.1321   76.5388   81.8278 H   0  0  0  0  0  0
   20.1384   77.0009   79.8814 H   0  0  0  0  0  0
   21.6733   77.6587   79.9718 H   0  0  0  0  0  0
   23.6671   78.7551   90.3152 H   0  0  0  0  0  0
  1  6  1  0  0  0
  1  2  2  0  0  0
  1 34  1  0  0  0
  2  3  1  0  0  0
  2 35  1  0  0  0
  3  4  2  0  0  0
  3 36  1  0  0  0
  4  5  1  0  0  0
  4  7  1  0  0  0
  5  6  2  0  0  0
  5 37  1  0  0  0
  6 38  1  0  0  0
  7  8  2  0  0  0
  7  9  1  0  0  0
  9 14  1  0  0  0
  9 10  1  0  0  0
 10 11  1  0  0  0
 10 39  1  0  0  0
 10 40  1  0  0  0
 11 12  1  0  0  0
 11 41  1  0  0  0
 11 42  1  0  0  0
 12 13  1  0  0  0
 12 15  1  0  0  0
 13 14  1  0  0  0
 13 43  1  0  0  0
 13 44  1  0  0  0
 14 45  1  0  0  0
 14 46  1  0  0  0
 15 16  2  0  0  0
 15 17  1  0  0  0
 17 20  1  0  0  0
 17 18  1  0  0  0
 18 32  1  0  0  0
 18 19  1  0  0  0
 18 29  1  0  0  0
 19 33  1  0  0  0
 19 20  1  0  0  0
 19 22  1  0  0  0
 20 21  2  0  0  0
 22 23  1  0  0  0
 22 47  1  0  0  0
 22 48  1  0  0  0
 23 24  1  0  0  0
 23 49  1  0  0  0
 23 50  1  0  0  0
 24 25  1  0  0  0
 24 51  1  0  0  0
 24 52  1  0  0  0
 25 26  1  0  0  0
 25 53  1  0  0  0
 26 27  2  3  0  0
 26 28  1  0  0  0
 27 54  1  0  0  0
 28 55  1  0  0  0
 28 56  1  0  0  0
 29 30  2  0  0  0
 29 31  1  0  0  0
 31 57  1  0  0  0
M  END
> <s_m_entry_id>
40702

> <s_m_entry_name>
ligand_docking-pose.6

> <s_m_Source_Path>
/home/csk/Desktop/cluster/DUD-E-result/tryb1

> <s_m_Source_File>
ligand_docking-pose.sdf

> <i_m_Source_File_Index>
6

> <i_lp_mmshare_version>
53161

> <i_f3d_flags>
0

> <r_lp_tautomer_probability>
1

> <s_lp_Force_Field>
OPLS_2005

> <r_lp_Energy>
73.849901

> <b_lp_Chiralities_Consistent>
1

> <s_lp_Variant>
181521-1

> <s_i_glide_gridfile>
glide-grid_2zec

> <i_i_glide_lignum>
145

> <i_i_glide_rotatable_bonds>
11

> <r_i_docking_score>
-7.52892671449089

> <r_i_glide_ligand_efficiency>
-0.242868603693255

> <r_i_glide_ligand_efficiency_sa>
-0.762942731841991

> <r_i_glide_ligand_efficiency_ln>
-1.6980037080114

> <r_i_glide_gscore>
-7.52892671449089

> <r_i_glide_lipo>
-2.09816911896072

> <r_i_glide_hbond>
-1.12409243473562

> <r_i_glide_metal>
0

> <r_i_glide_rewards>
-1.17192432246525

> <r_i_glide_evdw>
-41.2501029968262

> <r_i_glide_ecoul>
-14.1377143859863

> <r_i_glide_erotb>
1.07296351690058

> <r_i_glide_esite>
-0.0245420474906246

> <r_i_glide_emodel>
-75.5990997475332

> <r_i_glide_energy>
-55.3878173828125

> <r_i_glide_einternal>
9.25194835662842

> <i_i_glide_confnum>
13

> <i_i_glide_posenum>
31

> <r_i_glide_eff_state_penalty>
0

> <s_user_duplicate_titles>
181521

> <s_m_subgroup_title>
dock_pv

> <s_m_subgroupid>
dock_pv1

> <b_m_subgroup_collapsed>
0

$$$$
180851
                    3D
 Schrodinger Suite 2021-1.
 79 82  0  0  1  0            999 V2000
   28.3128   73.8223   83.5605 C   0  0  0  0  0  0
   28.8136   72.7527   82.8200 C   0  0  0  0  0  0
   30.1807   72.6551   82.5876 C   0  0  0  0  0  0
   31.0452   73.6254   83.1008 C   0  0  0  0  0  0
   30.5410   74.6826   83.8620 C   0  0  0  0  0  0
   29.1703   74.7841   84.0877 C   0  0  0  0  0  0
   32.5320   73.5544   82.7835 C   0  0  0  0  0  0
   32.9966   74.6384   81.7893 C   0  0  0  0  0  0
   32.1589   74.7024   80.4895 C   0  0  0  0  0  0
   32.7186   75.6461   79.4073 C   0  0  0  0  0  0
   32.6737   77.1595   79.7267 C   0  0  0  0  0  0
   31.2611   77.7728   79.6179 C   0  0  0  0  0  0
   30.8094   77.9270   78.4797 O   0  0  0  0  0  0
   30.5744   78.1669   80.7236 N   0  0  0  0  0  0
   30.9706   77.8850   82.1169 C   0  0  0  0  0  0
   30.9257   79.1972   82.9350 C   0  0  0  0  0  0
   29.5845   79.7847   82.7901 N   0  0  0  0  0  0
   29.1856   80.0869   81.4050 C   0  0  0  0  0  0
   29.2374   78.7717   80.5920 C   0  0  0  0  0  0
   29.0513   80.4902   83.8169 C   0  0  0  0  0  0
   29.7324   81.2445   84.5129 O   0  0  0  0  0  0
   27.7386   80.2803   84.0917 N   0  0  0  0  0  0
   26.8651   80.8457   85.1773 C   0  0  1  0  0  0
   25.7030   79.9703   84.6379 C   0  0  2  0  0  0
   26.7008   79.5106   83.5474 C   0  0  0  0  0  0
   26.6247   78.7520   82.5859 O   0  0  0  0  0  0
   24.4850   80.7319   84.0441 C   0  0  0  0  0  0
   23.1360   79.9867   84.1794 C   0  0  2  0  0  0
   22.6913   79.7967   85.6537 C   0  0  0  0  0  0
   21.4132   78.9662   85.7792 C   0  0  0  0  0  0
   21.4968   77.6845   84.9488 C   0  0  0  0  0  0
   21.7273   78.0405   83.5439 N   0  0  0  0  0  0
   23.0546   78.6603   83.3716 C   0  0  0  0  0  0
   20.8751   77.5520   82.5021 C   0  0  0  0  0  0
   19.7503   77.0353   82.6959 N   0  0  0  0  0  0
   21.3499   77.6744   81.1910 N   0  0  0  0  0  0
   27.2434   80.4264   86.6182 C   0  0  0  0  0  0
   28.0372   79.5463   86.8760 O   0  0  0  0  0  0
   26.5511   81.1519   87.5438 O   0  0  0  0  0  0
   26.7444   81.9263   85.0804 H   0  0  0  0  0  0
   25.3913   79.1376   85.2687 H   0  0  0  0  0  0
   27.2513   73.9081   83.7270 H   0  0  0  0  0  0
   28.1501   72.0033   82.4170 H   0  0  0  0  0  0
   30.5621   71.8346   81.9943 H   0  0  0  0  0  0
   31.2059   75.4359   84.2573 H   0  0  0  0  0  0
   28.7736   75.6094   84.6607 H   0  0  0  0  0  0
   33.0936   73.6390   83.7133 H   0  0  0  0  0  0
   32.7776   72.5661   82.3918 H   0  0  0  0  0  0
   32.9848   75.6054   82.2892 H   0  0  0  0  0  0
   34.0449   74.4617   81.5450 H   0  0  0  0  0  0
   32.0977   73.7001   80.0621 H   0  0  0  0  0  0
   31.1301   74.9875   80.7176 H   0  0  0  0  0  0
   33.7499   75.3651   79.2173 H   0  0  0  0  0  0
   32.1978   75.4554   78.4652 H   0  0  0  0  0  0
   33.1913   77.3935   80.6542 H   0  0  0  0  0  0
   33.2699   77.6718   78.9696 H   0  0  0  0  0  0
   30.2485   77.1767   82.5260 H   0  0  0  0  0  0
   31.9487   77.4256   82.2225 H   0  0  0  0  0  0
   31.6571   79.8901   82.5167 H   0  0  0  0  0  0
   31.1740   79.0062   83.9804 H   0  0  0  0  0  0
   29.9076   80.7829   80.9756 H   0  0  0  0  0  0
   28.1915   80.5356   81.3440 H   0  0  0  0  0  0
   28.9431   78.9492   79.5552 H   0  0  0  0  0  0
   28.5326   78.0533   81.0062 H   0  0  0  0  0  0
   24.3954   81.6938   84.5457 H   0  0  0  0  0  0
   24.6393   80.9930   82.9932 H   0  0  0  0  0  0
   22.3496   80.6147   83.7517 H   0  0  0  0  0  0
   23.4658   79.2849   86.2210 H   0  0  0  0  0  0
   22.5586   80.7507   86.1515 H   0  0  0  0  0  0
   21.2593   78.7035   86.8176 H   0  0  0  0  0  0
   20.5439   79.5476   85.4858 H   0  0  0  0  0  0
   22.3522   77.1074   85.2977 H   0  0  0  0  0  0
   20.6075   77.0676   85.0976 H   0  0  0  0  0  0
   23.2680   78.8784   82.3267 H   0  0  0  0  0  0
   23.8401   77.9667   83.6758 H   0  0  0  0  0  0
   19.3492   76.7319   81.8212 H   0  0  0  0  0  0
   20.7970   77.4076   80.3887 H   0  0  0  0  0  0
   22.2622   78.0572   80.9613 H   0  0  0  0  0  0
   25.9864   81.8608   87.2120 H   0  0  0  0  0  0
  1  6  1  0  0  0
  1  2  2  0  0  0
  1 42  1  0  0  0
  2  3  1  0  0  0
  2 43  1  0  0  0
  3  4  2  0  0  0
  3 44  1  0  0  0
  4  5  1  0  0  0
  4  7  1  0  0  0
  5  6  2  0  0  0
  5 45  1  0  0  0
  6 46  1  0  0  0
  7  8  1  0  0  0
  7 47  1  0  0  0
  7 48  1  0  0  0
  8  9  1  0  0  0
  8 49  1  0  0  0
  8 50  1  0  0  0
  9 10  1  0  0  0
  9 51  1  0  0  0
  9 52  1  0  0  0
 10 11  1  0  0  0
 10 53  1  0  0  0
 10 54  1  0  0  0
 11 12  1  0  0  0
 11 55  1  0  0  0
 11 56  1  0  0  0
 12 13  2  0  0  0
 12 14  1  0  0  0
 14 19  1  0  0  0
 14 15  1  0  0  0
 15 16  1  0  0  0
 15 57  1  0  0  0
 15 58  1  0  0  0
 16 17  1  0  0  0
 16 59  1  0  0  0
 16 60  1  0  0  0
 17 18  1  0  0  0
 17 20  1  0  0  0
 18 19  1  0  0  0
 18 61  1  0  0  0
 18 62  1  0  0  0
 19 63  1  0  0  0
 19 64  1  0  0  0
 20 21  2  0  0  0
 20 22  1  0  0  0
 22 25  1  0  0  0
 22 23  1  0  0  0
 23 40  1  0  0  0
 23 24  1  0  0  0
 23 37  1  0  0  0
 24 41  1  0  0  0
 24 25  1  0  0  0
 24 27  1  0  0  0
 25 26  2  0  0  0
 27 28  1  0  0  0
 27 65  1  0  0  0
 27 66  1  0  0  0
 28 33  1  0  0  0
 28 29  1  0  0  0
 28 67  1  0  0  0
 29 30  1  0  0  0
 29 68  1  0  0  0
 29 69  1  0  0  0
 30 31  1  0  0  0
 30 70  1  0  0  0
 30 71  1  0  0  0
 31 32  1  0  0  0
 31 72  1  0  0  0
 31 73  1  0  0  0
 32 33  1  0  0  0
 32 34  1  0  0  0
 33 74  1  0  0  0
 33 75  1  0  0  0
 34 35  2  3  0  0
 34 36  1  0  0  0
 35 76  1  0  0  0
 36 77  1  0  0  0
 36 78  1  0  0  0
 37 38  2  0  0  0
 37 39  1  0  0  0
 39 79  1  0  0  0
M  END
> <s_m_entry_id>
40703

> <s_m_entry_name>
ligand_docking-pose.7

> <s_m_Source_Path>
/home/csk/Desktop/cluster/DUD-E-result/tryb1

> <s_m_Source_File>
ligand_docking-pose.sdf

> <i_m_Source_File_Index>
7

> <i_lp_mmshare_version>
53161

> <i_f3d_flags>
0

> <r_lp_tautomer_probability>
1

> <s_lp_Force_Field>
OPLS_2005

> <r_lp_Energy>
85.448277

> <b_lp_Chiralities_Consistent>
1

> <s_lp_Variant>
180851-1

> <s_i_glide_gridfile>
glide-grid_2zec

> <i_i_glide_lignum>
65

> <i_i_glide_rotatable_bonds>
14

> <r_i_docking_score>
-7.51881458764799

> <r_i_glide_ligand_efficiency>
-0.192790117632

> <r_i_glide_ligand_efficiency_sa>
-0.653792052215283

> <r_i_glide_ligand_efficiency_ln>
-1.61224728183618

> <r_i_glide_gscore>
-7.51881458764799

> <r_i_glide_lipo>
-3.06335676054166

> <r_i_glide_hbond>
-0.805388699260543

> <r_i_glide_metal>
0

> <r_i_glide_rewards>
-0.566477468178437

> <r_i_glide_evdw>
-40.1886177062988

> <r_i_glide_ecoul>
-12.3076982498169

> <r_i_glide_erotb>
0.778063808316498

> <r_i_glide_esite>
-0.00606984519637466

> <r_i_glide_emodel>
-73.4762160381506

> <r_i_glide_energy>
-52.4963159561157

> <r_i_glide_einternal>
9.23596477508545

> <i_i_glide_confnum>
15

> <i_i_glide_posenum>
397

> <r_i_glide_eff_state_penalty>
0

> <s_user_duplicate_titles>
180851

> <s_m_subgroup_title>
dock_pv

> <s_m_subgroupid>
dock_pv1

> <b_m_subgroup_collapsed>
0

$$$$
208460
                    3D
 Schrodinger Suite 2021-1.
 60 62  0  0  1  0            999 V2000
   31.7725   72.4062   82.8231 C   0  0  0  0  0  0
   30.4816   71.9513   83.0537 C   0  0  0  0  0  0
   29.4390   72.8499   83.2568 C   0  0  0  0  0  0
   29.6705   74.2573   83.2368 C   0  0  0  0  0  0
   31.0017   74.7152   82.9951 C   0  0  0  0  0  0
   32.0410   73.7723   82.7898 C   0  0  0  0  0  0
   31.2513   76.1022   82.9603 C   0  0  0  0  0  0
   30.2202   77.0137   83.1534 C   0  0  0  0  0  0
   28.9039   76.6008   83.3904 C   0  0  0  0  0  0
   28.6268   75.2149   83.4293 C   0  0  0  0  0  0
   27.3498   74.7490   83.6179 O   0  0  0  0  0  0
   27.8450   77.6716   83.5717 C   0  0  0  0  0  0
   27.9397   78.7430   82.9717 O   0  0  0  0  0  0
   26.8334   77.4033   84.4177 N   0  0  0  0  0  0
   25.6887   78.2675   84.7339 C   0  0  1  0  0  0
   24.8108   78.4868   83.4692 C   0  0  0  0  0  0
   23.7263   79.5781   83.6032 C   0  0  0  0  0  0
   22.3011   79.0354   83.8026 C   0  0  0  0  0  0
   21.8231   78.3483   82.6141 N   0  0  0  0  0  0
   20.5646   77.8109   82.3920 C   0  0  0  0  0  0
   19.6114   77.8591   83.2179 N   0  0  0  0  0  0
   20.4840   77.2051   81.1514 N   0  0  0  0  0  0
   24.8689   77.5254   85.8118 C   0  0  0  0  0  0
   24.5512   76.3531   85.5828 O   0  0  0  0  0  0
   24.5365   78.1858   86.9521 N   0  0  0  0  0  0
   24.8373   79.5890   87.2651 C   0  0  0  0  0  0
   23.8098   79.9808   88.3172 C   0  0  0  0  0  0
   23.6073   78.6897   89.0906 C   0  0  0  0  0  0
   23.7554   77.5636   88.0440 C   0  0  2  0  0  0
   24.4088   76.2954   88.6331 C   0  0  0  0  0  0
   25.4915   76.3548   89.2091 O   0  0  0  0  0  0
   23.7498   75.1471   88.4876 N   0  0  0  0  0  0
   26.1008   79.2145   85.0798 H   0  0  0  0  0  0
   32.5719   71.6937   82.6743 H   0  0  0  0  0  0
   30.2890   70.8851   83.0765 H   0  0  0  0  0  0
   28.4416   72.4708   83.4294 H   0  0  0  0  0  0
   33.0493   74.1206   82.6058 H   0  0  0  0  0  0
   32.2557   76.4560   82.7714 H   0  0  0  0  0  0
   30.4603   78.0668   83.1127 H   0  0  0  0  0  0
   26.6796   75.3424   83.2441 H   0  0  0  0  0  0
   26.8264   76.5122   84.8932 H   0  0  0  0  0  0
   25.4397   78.7516   82.6205 H   0  0  0  0  0  0
   24.3251   77.5541   83.1945 H   0  0  0  0  0  0
   23.9664   80.2648   84.4138 H   0  0  0  0  0  0
   23.7453   80.1952   82.7046 H   0  0  0  0  0  0
   22.2525   78.3624   84.6567 H   0  0  0  0  0  0
   21.6287   79.8653   84.0146 H   0  0  0  0  0  0
   22.4919   78.2645   81.8597 H   0  0  0  0  0  0
   19.8628   78.3367   84.0702 H   0  0  0  0  0  0
   19.5638   77.2429   80.7367 H   0  0  0  0  0  0
   21.1422   77.5689   80.4790 H   0  0  0  0  0  0
   24.7721   80.2690   86.4186 H   0  0  0  0  0  0
   25.8495   79.6487   87.6724 H   0  0  0  0  0  0
   22.8753   80.2630   87.8272 H   0  0  0  0  0  0
   24.1296   80.8188   88.9408 H   0  0  0  0  0  0
   22.6391   78.6698   89.5903 H   0  0  0  0  0  0
   24.3776   78.6139   89.8616 H   0  0  0  0  0  0
   22.7714   77.3299   87.6310 H   0  0  0  0  0  0
   24.1606   74.3003   88.8471 H   0  0  0  0  0  0
   22.8518   75.1043   88.0174 H   0  0  0  0  0  0
  1  6  1  0  0  0
  1  2  2  0  0  0
  1 34  1  0  0  0
  2  3  1  0  0  0
  2 35  1  0  0  0
  3  4  2  0  0  0
  3 36  1  0  0  0
  4 10  1  0  0  0
  4  5  1  0  0  0
  5  6  2  0  0  0
  5  7  1  0  0  0
  6 37  1  0  0  0
  7  8  2  0  0  0
  7 38  1  0  0  0
  8  9  1  0  0  0
  8 39  1  0  0  0
  9 10  2  0  0  0
  9 12  1  0  0  0
 10 11  1  0  0  0
 11 40  1  0  0  0
 12 13  2  0  0  0
 12 14  1  0  0  0
 14 15  1  0  0  0
 14 41  1  0  0  0
 15 33  1  0  0  0
 15 16  1  0  0  0
 15 23  1  0  0  0
 16 17  1  0  0  0
 16 42  1  0  0  0
 16 43  1  0  0  0
 17 18  1  0  0  0
 17 44  1  0  0  0
 17 45  1  0  0  0
 18 19  1  0  0  0
 18 46  1  0  0  0
 18 47  1  0  0  0
 19 20  1  0  0  0
 19 48  1  0  0  0
 20 21  2  3  0  0
 20 22  1  0  0  0
 21 49  1  0  0  0
 22 50  1  0  0  0
 22 51  1  0  0  0
 23 24  2  0  0  0
 23 25  1  0  0  0
 25 29  1  0  0  0
 25 26  1  0  0  0
 26 27  1  0  0  0
 26 52  1  0  0  0
 26 53  1  0  0  0
 27 28  1  0  0  0
 27 54  1  0  0  0
 27 55  1  0  0  0
 28 29  1  0  0  0
 28 56  1  0  0  0
 28 57  1  0  0  0
 29 30  1  0  0  0
 29 58  1  0  0  0
 30 31  2  0  0  0
 30 32  1  0  0  0
 32 59  1  0  0  0
 32 60  1  0  0  0
M  END
> <s_m_entry_id>
40704

> <s_m_entry_name>
ligand_docking-pose.8

> <s_m_Source_Path>
/home/csk/Desktop/cluster/DUD-E-result/tryb1

> <s_m_Source_File>
ligand_docking-pose.sdf

> <i_m_Source_File_Index>
8

> <i_lp_mmshare_version>
53161

> <i_f3d_flags>
0

> <r_lp_tautomer_probability>
1

> <s_lp_Force_Field>
OPLS_2005

> <r_lp_Energy>
29.74938

> <b_lp_Chiralities_Consistent>
1

> <s_lp_Variant>
208460-4

> <s_i_glide_gridfile>
glide-grid_2zec

> <i_i_glide_lignum>
16

> <i_i_glide_rotatable_bonds>
12

> <r_i_docking_score>
-7.39288148164395

> <r_i_glide_ligand_efficiency>
-0.231027546301373

> <r_i_glide_ligand_efficiency_sa>
-0.73346673921753

> <r_i_glide_ligand_efficiency_ln>
-1.65546768607814

> <r_i_glide_gscore>
-7.39288148164395

> <r_i_glide_lipo>
-2.11650795438334

> <r_i_glide_hbond>
-1.12223305130261

> <r_i_glide_metal>
0

> <r_i_glide_rewards>
-0.740439905212161

> <r_i_glide_evdw>
-43.2345314025879

> <r_i_glide_ecoul>
-15.1257009506226

> <r_i_glide_erotb>
1.02904055285377

> <r_i_glide_esite>
-0.012159410876829

> <r_i_glide_emodel>
-79.1615400688217

> <r_i_glide_energy>
-58.3602323532104

> <r_i_glide_einternal>
10.0617799758911

> <i_i_glide_confnum>
228

> <i_i_glide_posenum>
383

> <r_i_glide_eff_state_penalty>
0

> <s_user_duplicate_titles>
208460

> <s_m_subgroup_title>
dock_pv

> <s_m_subgroupid>
dock_pv1

> <b_m_subgroup_collapsed>
0

$$$$
180711
                    3D
 Schrodinger Suite 2021-1.
 75 78  0  0  1  0            999 V2000
   34.8986   72.9076   86.8506 C   0  0  0  0  0  0
   34.9492   71.9507   85.8416 C   0  0  0  0  0  0
   33.9992   71.9597   84.8225 C   0  0  0  0  0  0
   32.9970   72.9447   84.8078 C   0  0  0  0  0  0
   32.9614   73.9008   85.8235 C   0  0  0  0  0  0
   33.9059   73.8845   86.8461 C   0  0  0  0  0  0
   32.0136   73.0531   83.8444 O   0  0  0  0  0  0
   31.9323   72.0825   82.8065 C   0  0  0  0  0  0
   30.8304   72.4608   81.8027 C   0  0  0  0  0  0
   29.4689   72.7799   82.4408 C   0  0  0  0  0  0
   29.4735   74.1099   82.9583 O   0  0  0  0  0  0
   28.3966   74.6057   83.6177 C   0  0  0  0  0  0
   27.3960   73.9354   83.8774 O   0  0  0  0  0  0
   28.5479   75.9578   83.9645 N   0  0  0  0  0  0
   29.7328   76.7526   83.5672 C   0  0  0  0  0  0
   30.0086   77.8336   84.6575 C   0  0  0  0  0  0
   28.7736   78.5912   84.9575 N   0  0  0  0  0  0
   27.7429   77.6835   85.4947 C   0  0  0  0  0  0
   27.3366   76.6648   84.4174 C   0  0  0  0  0  0
   28.4623   79.6535   84.1516 C   0  0  0  0  0  0
   29.0971   79.8902   83.1184 O   0  0  0  0  0  0
   27.4507   80.4914   84.4973 N   0  0  0  0  0  0
   26.9441   81.7037   83.7680 C   0  0  1  0  0  0
   25.6852   81.6566   84.6795 C   0  0  2  0  0  0
   26.5219   80.6594   85.5368 C   0  0  0  0  0  0
   26.4472   80.2460   86.6934 O   0  0  0  0  0  0
   24.4147   81.0820   83.9689 C   0  0  0  0  0  0
   23.7169   79.7754   84.4493 C   0  0  1  0  0  0
   23.2035   79.8508   85.9001 C   0  0  0  0  0  0
   22.4149   78.5911   86.2749 C   0  0  0  0  0  0
   21.2368   78.3696   85.3081 C   0  0  0  0  0  0
   21.6711   78.3176   83.9016 N   0  0  0  0  0  0
   22.5130   79.4674   83.5118 C   0  0  0  0  0  0
   20.8602   77.6192   82.9382 C   0  0  0  0  0  0
   19.7739   77.0387   83.2054 N   0  0  0  0  0  0
   21.3494   77.5938   81.6171 N   0  0  0  0  0  0
   27.7690   83.0040   83.9493 C   0  0  0  0  0  0
   28.6797   83.1397   84.7381 O   0  0  0  0  0  0
   27.3074   83.9521   83.0938 O   0  0  0  0  0  0
   26.7743   81.4948   82.7115 H   0  0  0  0  0  0
   25.4286   82.5737   85.2143 H   0  0  0  0  0  0
   35.6316   72.8982   87.6429 H   0  0  0  0  0  0
   35.7199   71.1954   85.8543 H   0  0  0  0  0  0
   34.0566   71.2023   84.0536 H   0  0  0  0  0  0
   32.1922   74.6597   85.8154 H   0  0  0  0  0  0
   33.8642   74.6294   87.6280 H   0  0  0  0  0  0
   32.8893   72.0168   82.2910 H   0  0  0  0  0  0
   31.7218   71.0949   83.2166 H   0  0  0  0  0  0
   31.1577   73.3034   81.1913 H   0  0  0  0  0  0
   30.6990   71.6275   81.1115 H   0  0  0  0  0  0
   28.6848   72.6944   81.6884 H   0  0  0  0  0  0
   29.2370   72.0555   83.2239 H   0  0  0  0  0  0
   30.6219   76.1261   83.4720 H   0  0  0  0  0  0
   29.5363   77.2225   82.6024 H   0  0  0  0  0  0
   30.2634   77.2955   85.5723 H   0  0  0  0  0  0
   30.8691   78.4831   84.4813 H   0  0  0  0  0  0
   26.9319   78.1245   86.0593 H   0  0  0  0  0  0
   28.2334   77.1095   86.2824 H   0  0  0  0  0  0
   26.8659   77.1700   83.5721 H   0  0  0  0  0  0
   26.6003   75.9838   84.8496 H   0  0  0  0  0  0
   23.6716   81.8794   83.9613 H   0  0  0  0  0  0
   24.6454   80.9474   82.9110 H   0  0  0  0  0  0
   24.3938   78.9204   84.4087 H   0  0  0  0  0  0
   23.9906   80.0518   86.6208 H   0  0  0  0  0  0
   22.5501   80.7121   85.9748 H   0  0  0  0  0  0
   23.0576   77.7089   86.2913 H   0  0  0  0  0  0
   22.0284   78.6910   87.2899 H   0  0  0  0  0  0
   20.7345   77.4412   85.5829 H   0  0  0  0  0  0
   20.4970   79.1604   85.4175 H   0  0  0  0  0  0
   21.8754   80.3497   83.4458 H   0  0  0  0  0  0
   22.9108   79.3237   82.5073 H   0  0  0  0  0  0
   19.4051   76.5706   82.3899 H   0  0  0  0  0  0
   20.8365   77.1668   80.8612 H   0  0  0  0  0  0
   22.2185   78.0341   81.3422 H   0  0  0  0  0  0
   27.7488   84.8123   83.2120 H   0  0  0  0  0  0
  1  6  1  0  0  0
  1  2  2  0  0  0
  1 42  1  0  0  0
  2  3  1  0  0  0
  2 43  1  0  0  0
  3  4  2  0  0  0
  3 44  1  0  0  0
  4  5  1  0  0  0
  4  7  1  0  0  0
  5  6  2  0  0  0
  5 45  1  0  0  0
  6 46  1  0  0  0
  7  8  1  0  0  0
  8  9  1  0  0  0
  8 47  1  0  0  0
  8 48  1  0  0  0
  9 10  1  0  0  0
  9 49  1  0  0  0
  9 50  1  0  0  0
 10 11  1  0  0  0
 10 51  1  0  0  0
 10 52  1  0  0  0
 11 12  1  0  0  0
 12 13  2  0  0  0
 12 14  1  0  0  0
 14 19  1  0  0  0
 14 15  1  0  0  0
 15 16  1  0  0  0
 15 53  1  0  0  0
 15 54  1  0  0  0
 16 17  1  0  0  0
 16 55  1  0  0  0
 16 56  1  0  0  0
 17 18  1  0  0  0
 17 20  1  0  0  0
 18 19  1  0  0  0
 18 57  1  0  0  0
 18 58  1  0  0  0
 19 59  1  0  0  0
 19 60  1  0  0  0
 20 21  2  0  0  0
 20 22  1  0  0  0
 22 25  1  0  0  0
 22 23  1  0  0  0
 23 40  1  0  0  0
 23 24  1  0  0  0
 23 37  1  0  0  0
 24 41  1  0  0  0
 24 25  1  0  0  0
 24 27  1  0  0  0
 25 26  2  0  0  0
 27 28  1  0  0  0
 27 61  1  0  0  0
 27 62  1  0  0  0
 28 33  1  0  0  0
 28 29  1  0  0  0
 28 63  1  0  0  0
 29 30  1  0  0  0
 29 64  1  0  0  0
 29 65  1  0  0  0
 30 31  1  0  0  0
 30 66  1  0  0  0
 30 67  1  0  0  0
 31 32  1  0  0  0
 31 68  1  0  0  0
 31 69  1  0  0  0
 32 33  1  0  0  0
 32 34  1  0  0  0
 33 70  1  0  0  0
 33 71  1  0  0  0
 34 35  2  3  0  0
 34 36  1  0  0  0
 35 72  1  0  0  0
 36 73  1  0  0  0
 36 74  1  0  0  0
 37 38  2  0  0  0
 37 39  1  0  0  0
 39 75  1  0  0  0
M  END
> <s_m_entry_id>
40708

> <s_m_entry_name>
ligand_docking-pose.12

> <s_m_Source_Path>
/home/csk/Desktop/cluster/DUD-E-result/tryb1

> <s_m_Source_File>
ligand_docking-pose.sdf

> <i_m_Source_File_Index>
12

> <i_lp_mmshare_version>
53161

> <i_f3d_flags>
0

> <r_lp_tautomer_probability>
1

> <s_lp_Force_Field>
OPLS_2005

> <r_lp_Energy>
82.665171

> <b_lp_Chiralities_Consistent>
1

> <s_lp_Variant>
180711-3

> <s_i_glide_gridfile>
glide-grid_2zec

> <i_i_glide_lignum>
167

> <i_i_glide_rotatable_bonds>
14

> <r_i_docking_score>
-7.2186300616489

> <r_i_glide_ligand_efficiency>
-0.185093078503818

> <r_i_glide_ligand_efficiency_sa>
-0.62768976507834

> <r_i_glide_ligand_efficiency_ln>
-1.54787919821747

> <r_i_glide_gscore>
-7.2186300616489

> <r_i_glide_lipo>
-2.79801961393747

> <r_i_glide_hbond>
-0.370425858734952

> <r_i_glide_metal>
0

> <r_i_glide_rewards>
-0.755911119050072

> <r_i_glide_evdw>
-47.2426605224609

> <r_i_glide_ecoul>
-11.122745513916

> <r_i_glide_erotb>
0.767698642213273

> <r_i_glide_esite>
-0.031427258929226

> <r_i_glide_emodel>
-75.5839657865718

> <r_i_glide_energy>
-58.365406036377

> <r_i_glide_einternal>
18.1479377746582

> <i_i_glide_confnum>
18

> <i_i_glide_posenum>
178

> <r_i_glide_eff_state_penalty>
0

> <s_user_duplicate_titles>
180711

> <s_m_subgroup_title>
dock_pv

> <s_m_subgroupid>
dock_pv1

> <b_m_subgroup_collapsed>
0

$$$$
112390
                    3D
 Schrodinger Suite 2021-1.
 79 82  0  0  1  0            999 V2000
   29.3514   78.5013   78.2043 C   0  0  0  0  0  0
   29.9915   77.5525   77.4122 C   0  0  0  0  0  0
   31.0475   76.8144   77.9384 C   0  0  0  0  0  0
   31.4615   77.0323   79.2554 C   0  0  0  0  0  0
   30.8043   77.9742   80.0510 C   0  0  0  0  0  0
   29.7498   78.7133   79.5226 C   0  0  0  0  0  0
   32.6617   76.2757   79.8030 C   0  0  0  0  0  0
   32.3781   74.8157   80.2074 C   0  0  0  0  0  0
   31.5484   74.6430   81.4953 C   0  0  0  0  0  0
   31.4445   73.1675   81.9501 C   0  0  0  0  0  0
   30.7592   72.9695   83.3264 C   0  0  0  0  0  0
   29.2446   73.2575   83.3109 C   0  0  0  0  0  0
   28.5695   72.7524   82.4172 O   0  0  0  0  0  0
   28.6844   74.0764   84.2332 N   0  0  0  0  0  0
   29.2063   74.2390   85.6079 C   0  0  0  0  0  0
   29.1435   75.7367   86.0117 C   0  0  0  0  0  0
   27.8107   76.2958   85.7244 N   0  0  0  0  0  0
   27.4362   76.1611   84.3062 C   0  0  0  0  0  0
   27.3547   74.6550   83.9608 C   0  0  0  0  0  0
   26.7923   76.1310   86.6053 C   0  0  0  0  0  0
   26.6535   75.1203   87.2986 O   0  0  0  0  0  0
   25.8887   77.1331   86.5692 N   0  0  0  0  0  0
   26.0233   78.5980   86.2579 C   0  0  1  0  0  0
   24.4766   78.6853   86.2658 C   0  0  2  0  0  0
   24.5141   77.2166   86.7955 C   0  0  0  0  0  0
   23.6767   76.4232   87.2198 O   0  0  0  0  0  0
   23.8611   78.8254   84.8428 C   0  0  0  0  0  0
   22.4588   78.2151   84.6234 C   0  0  1  0  0  0
   21.4030   78.6023   85.6799 C   0  0  0  0  0  0
   20.0784   77.8814   85.3951 C   0  0  0  0  0  0
   19.6191   78.0897   83.9472 C   0  0  0  0  0  0
   20.6730   77.7242   82.9847 N   0  0  0  0  0  0
   21.9006   78.5048   83.2062 C   0  0  0  0  0  0
   20.2806   77.1689   81.7301 C   0  0  0  0  0  0
   19.3500   76.3474   81.6169 N   0  0  0  0  0  0
   20.9503   77.6124   80.5822 N   0  0  0  0  0  0
   26.6868   79.4446   87.3701 C   0  0  0  0  0  0
   27.0781   78.9925   88.4237 O   0  0  0  0  0  0
   26.7807   80.7483   86.9804 O   0  0  0  0  0  0
   26.5006   78.7684   85.2928 H   0  0  0  0  0  0
   24.0145   79.3945   86.9566 H   0  0  0  0  0  0
   22.5484   77.1316   84.6964 H   0  0  0  0  0  0
   28.5325   79.0759   77.7959 H   0  0  0  0  0  0
   29.6661   77.3829   76.3966 H   0  0  0  0  0  0
   31.5455   76.0776   77.3242 H   0  0  0  0  0  0
   31.1232   78.1459   81.0691 H   0  0  0  0  0  0
   29.2431   79.4493   80.1283 H   0  0  0  0  0  0
   33.4354   76.2826   79.0321 H   0  0  0  0  0  0
   33.0991   76.8217   80.6423 H   0  0  0  0  0  0
   31.9086   74.2825   79.3791 H   0  0  0  0  0  0
   33.3501   74.3516   80.3562 H   0  0  0  0  0  0
   32.0074   75.2300   82.2923 H   0  0  0  0  0  0
   30.5521   75.0625   81.3464 H   0  0  0  0  0  0
   30.9384   72.5774   81.1812 H   0  0  0  0  0  0
   32.4512   72.7470   82.0134 H   0  0  0  0  0  0
   30.8739   71.9310   83.6359 H   0  0  0  0  0  0
   31.2944   73.5714   84.0581 H   0  0  0  0  0  0
   28.5500   73.6843   86.2759 H   0  0  0  0  0  0
   30.2154   73.8577   85.7515 H   0  0  0  0  0  0
   29.8365   76.2551   85.3475 H   0  0  0  0  0  0
   29.4824   75.9714   87.0223 H   0  0  0  0  0  0
   28.2517   76.5797   83.7136 H   0  0  0  0  0  0
   26.5737   76.7678   84.0170 H   0  0  0  0  0  0
   27.0369   74.5213   82.9256 H   0  0  0  0  0  0
   26.6060   74.1719   84.5870 H   0  0  0  0  0  0
   23.8335   79.8879   84.5907 H   0  0  0  0  0  0
   24.5299   78.3791   84.1033 H   0  0  0  0  0  0
   21.7459   78.3640   86.6860 H   0  0  0  0  0  0
   21.2610   79.6783   85.6781 H   0  0  0  0  0  0
   20.1456   76.8166   85.6211 H   0  0  0  0  0  0
   19.3010   78.2805   86.0409 H   0  0  0  0  0  0
   18.7007   77.5190   83.7967 H   0  0  0  0  0  0
   19.3539   79.1334   83.7871 H   0  0  0  0  0  0
   21.7498   79.5707   83.0451 H   0  0  0  0  0  0
   22.6567   78.2091   82.4757 H   0  0  0  0  0  0
   18.9599   76.0748   82.5061 H   0  0  0  0  0  0
   20.6640   77.3123   79.6598 H   0  0  0  0  0  0
   21.7709   78.2051   80.6092 H   0  0  0  0  0  0
   26.3884   80.9327   86.1250 H   0  0  0  0  0  0
  1  6  1  0  0  0
  1  2  2  0  0  0
  1 43  1  0  0  0
  2  3  1  0  0  0
  2 44  1  0  0  0
  3  4  2  0  0  0
  3 45  1  0  0  0
  4  5  1  0  0  0
  4  7  1  0  0  0
  5  6  2  0  0  0
  5 46  1  0  0  0
  6 47  1  0  0  0
  7  8  1  0  0  0
  7 48  1  0  0  0
  7 49  1  0  0  0
  8  9  1  0  0  0
  8 50  1  0  0  0
  8 51  1  0  0  0
  9 10  1  0  0  0
  9 52  1  0  0  0
  9 53  1  0  0  0
 10 11  1  0  0  0
 10 54  1  0  0  0
 10 55  1  0  0  0
 11 12  1  0  0  0
 11 56  1  0  0  0
 11 57  1  0  0  0
 12 13  2  0  0  0
 12 14  1  0  0  0
 14 19  1  0  0  0
 14 15  1  0  0  0
 15 16  1  0  0  0
 15 58  1  0  0  0
 15 59  1  0  0  0
 16 17  1  0  0  0
 16 60  1  0  0  0
 16 61  1  0  0  0
 17 18  1  0  0  0
 17 20  1  0  0  0
 18 19  1  0  0  0
 18 62  1  0  0  0
 18 63  1  0  0  0
 19 64  1  0  0  0
 19 65  1  0  0  0
 20 21  2  0  0  0
 20 22  1  0  0  0
 22 25  1  0  0  0
 22 23  1  0  0  0
 23 40  1  0  0  0
 23 24  1  0  0  0
 23 37  1  0  0  0
 24 41  1  0  0  0
 24 25  1  0  0  0
 24 27  1  0  0  0
 25 26  2  0  0  0
 27 28  1  0  0  0
 27 66  1  0  0  0
 27 67  1  0  0  0
 28 42  1  0  0  0
 28 33  1  0  0  0
 28 29  1  0  0  0
 29 30  1  0  0  0
 29 68  1  0  0  0
 29 69  1  0  0  0
 30 31  1  0  0  0
 30 70  1  0  0  0
 30 71  1  0  0  0
 31 32  1  0  0  0
 31 72  1  0  0  0
 31 73  1  0  0  0
 32 33  1  0  0  0
 32 34  1  0  0  0
 33 74  1  0  0  0
 33 75  1  0  0  0
 34 35  2  3  0  0
 34 36  1  0  0  0
 35 76  1  0  0  0
 36 77  1  0  0  0
 36 78  1  0  0  0
 37 38  2  0  0  0
 37 39  1  0  0  0
 39 79  1  0  0  0
M  END
> <s_m_entry_id>
40709

> <s_m_entry_name>
ligand_docking-pose.13

> <s_m_Source_Path>
/home/csk/Desktop/cluster/DUD-E-result/tryb1

> <s_m_Source_File>
ligand_docking-pose.sdf

> <i_m_Source_File_Index>
13

> <i_lp_mmshare_version>
53161

> <i_f3d_flags>
0

> <r_lp_tautomer_probability>
1

> <s_lp_Force_Field>
OPLS_2005

> <r_lp_Energy>
87.410357

> <b_lp_Chiralities_Consistent>
1

> <s_lp_Variant>
112390-2

> <s_i_glide_gridfile>
glide-grid_2zec

> <i_i_glide_lignum>
82

> <i_i_glide_rotatable_bonds>
14

> <r_i_docking_score>
-7.215363898732

> <r_i_glide_ligand_efficiency>
-0.185009330736718

> <r_i_glide_ligand_efficiency_sa>
-0.627405758692571

> <r_i_glide_ligand_efficiency_ln>
-1.54717884017254

> <r_i_glide_gscore>
-7.215363898732

> <r_i_glide_lipo>
-2.96810693085432

> <r_i_glide_hbond>
-0.635297122266843

> <r_i_glide_metal>
0

> <r_i_glide_rewards>
-0.8779935845172

> <r_i_glide_evdw>
-49.9485473632812

> <r_i_glide_ecoul>
-6.39571762084961

> <r_i_glide_erotb>
0.778063808316498

> <r_i_glide_esite>
-0.0552450581186328

> <r_i_glide_emodel>
-72.3927397673695

> <r_i_glide_energy>
-56.3442649841309

> <r_i_glide_einternal>
12.9334506988525

> <i_i_glide_confnum>
38

> <i_i_glide_posenum>
21

> <r_i_glide_eff_state_penalty>
0

> <s_user_duplicate_titles>
112390

> <s_m_subgroup_title>
dock_pv

> <s_m_subgroupid>
dock_pv1

> <b_m_subgroup_collapsed>
0

$$$$
113956
                    3D
 Schrodinger Suite 2021-1.
 65 69  0  0  1  0            999 V2000
   19.9344   77.0252   81.7495 C   0  0  0  0  0  0
   19.3500   76.4300   82.8638 C   0  0  0  0  0  0
   19.7808   76.7520   84.1465 C   0  0  0  0  0  0
   20.8601   77.6491   84.3314 C   0  0  0  0  0  0
   21.3614   77.9520   85.6185 C   0  0  0  0  0  0
   22.4919   78.7602   85.7834 C   0  0  0  0  0  0
   23.0675   79.3579   84.6580 C   0  0  0  0  0  0
   22.5797   79.1054   83.3788 C   0  0  0  0  0  0
   21.4790   78.2384   83.1896 C   0  0  0  0  0  0
   20.9806   77.9293   81.9002 C   0  0  0  0  0  0
   23.0869   79.0241   87.1501 C   0  0  0  0  0  0
   23.3507   80.1906   87.4493 O   0  0  0  0  0  0
   23.3530   77.9819   87.9931 N   0  0  0  0  0  0
   24.0945   78.2139   89.2491 C   0  0  0  0  0  0
   25.5507   77.6855   89.0907 C   0  0  0  0  0  0
   25.5180   76.2915   88.6152 N   0  0  0  0  0  0
   24.7535   76.0676   87.3792 C   0  0  0  0  0  0
   23.3050   76.5554   87.6205 C   0  0  0  0  0  0
   25.5611   75.2779   89.5074 C   0  0  0  0  0  0
   24.5499   74.8852   90.0909 O   0  0  0  0  0  0
   26.7653   74.6834   89.6669 N   0  0  0  0  0  0
   28.1832   75.1132   89.4006 C   0  0  1  0  0  0
   28.6349   73.7037   89.8724 C   0  0  2  0  0  0
   27.1749   73.5519   90.3787 C   0  0  0  0  0  0
   26.5848   72.7521   91.1050 O   0  0  0  0  0  0
   29.6523   73.6487   91.0398 C   0  0  0  0  0  0
   31.0766   74.1553   90.7069 C   0  0  0  0  0  0
   32.0267   73.9960   91.9101 C   0  0  0  0  0  0
   33.4348   74.5511   91.6102 C   0  0  0  0  0  0
   34.0223   73.9310   90.4179 N   0  0  1  0  0  0
   33.1570   73.9742   89.2339 C   0  0  0  0  0  0
   31.7443   73.4239   89.5261 C   0  0  0  0  0  0
   28.5605   75.3666   87.9262 C   0  0  0  0  0  0
   27.8472   75.1241   86.9769 O   0  0  0  0  0  0
   29.7954   75.9299   87.8581 O   0  0  0  0  0  0
   28.4812   75.9446   90.0428 H   0  0  0  0  0  0
   28.8953   72.9762   89.1004 H   0  0  0  0  0  0
   19.5754   76.7861   80.7575 H   0  0  0  0  0  0
   18.5509   75.7143   82.7295 H   0  0  0  0  0  0
   19.3400   76.2729   85.0066 H   0  0  0  0  0  0
   20.8769   77.5075   86.4745 H   0  0  0  0  0  0
   23.9237   80.0101   84.7658 H   0  0  0  0  0  0
   23.0545   79.5520   82.5167 H   0  0  0  0  0  0
   21.4265   78.3855   81.0280 H   0  0  0  0  0  0
   23.5992   77.6291   90.0169 H   0  0  0  0  0  0
   24.0680   79.2553   89.5758 H   0  0  0  0  0  0
   26.1498   77.7979   89.9960 H   0  0  0  0  0  0
   26.0263   78.2827   88.3110 H   0  0  0  0  0  0
   25.1878   76.6824   86.5894 H   0  0  0  0  0  0
   24.8151   75.0341   87.0361 H   0  0  0  0  0  0
   22.6293   76.3091   86.8170 H   0  0  0  0  0  0
   22.8917   76.0032   88.4663 H   0  0  0  0  0  0
   29.7173   72.6168   91.3920 H   0  0  0  0  0  0
   29.2774   74.2223   91.8909 H   0  0  0  0  0  0
   31.0273   75.2172   90.4581 H   0  0  0  0  0  0
   32.0924   72.9557   92.2330 H   0  0  0  0  0  0
   31.6091   74.5116   92.7752 H   0  0  0  0  0  0
   34.0951   74.3734   92.4602 H   0  0  0  0  0  0
   33.3895   75.6314   91.4587 H   0  0  0  0  0  0
   34.9143   74.3606   90.2085 H   0  0  0  0  0  0
   33.6251   73.3968   88.4362 H   0  0  0  0  0  0
   33.0916   75.0069   88.8883 H   0  0  0  0  0  0
   31.1299   73.5125   88.6309 H   0  0  0  0  0  0
   31.7911   72.3519   89.7055 H   0  0  0  0  0  0
   30.0276   76.1090   86.9446 H   0  0  0  0  0  0
  1 10  1  0  0  0
  1  2  2  0  0  0
  1 38  1  0  0  0
  2  3  1  0  0  0
  2 39  1  0  0  0
  3  4  2  0  0  0
  3 40  1  0  0  0
  4  9  1  0  0  0
  4  5  1  0  0  0
  5  6  2  0  0  0
  5 41  1  0  0  0
  6  7  1  0  0  0
  6 11  1  0  0  0
  7  8  2  0  0  0
  7 42  1  0  0  0
  8  9  1  0  0  0
  8 43  1  0  0  0
  9 10  2  0  0  0
 10 44  1  0  0  0
 11 12  2  0  0  0
 11 13  1  0  0  0
 13 18  1  0  0  0
 13 14  1  0  0  0
 14 15  1  0  0  0
 14 45  1  0  0  0
 14 46  1  0  0  0
 15 16  1  0  0  0
 15 47  1  0  0  0
 15 48  1  0  0  0
 16 17  1  0  0  0
 16 19  1  0  0  0
 17 18  1  0  0  0
 17 49  1  0  0  0
 17 50  1  0  0  0
 18 51  1  0  0  0
 18 52  1  0  0  0
 19 20  2  0  0  0
 19 21  1  0  0  0
 21 24  1  0  0  0
 21 22  1  0  0  0
 22 36  1  0  0  0
 22 23  1  0  0  0
 22 33  1  0  0  0
 23 37  1  0  0  0
 23 24  1  0  0  0
 23 26  1  0  0  0
 24 25  2  0  0  0
 26 27  1  0  0  0
 26 53  1  0  0  0
 26 54  1  0  0  0
 27 32  1  0  0  0
 27 28  1  0  0  0
 27 55  1  0  0  0
 28 29  1  0  0  0
 28 56  1  0  0  0
 28 57  1  0  0  0
 29 30  1  0  0  0
 29 58  1  0  0  0
 29 59  1  0  0  0
 30 31  1  0  0  0
 30 60  1  0  0  0
 31 32  1  0  0  0
 31 61  1  0  0  0
 31 62  1  0  0  0
 32 63  1  0  0  0
 32 64  1  0  0  0
 33 34  2  0  0  0
 33 35  1  0  0  0
 35 65  1  0  0  0
M  END
> <s_m_entry_id>
40711

> <s_m_entry_name>
ligand_docking-pose.15

> <s_m_Source_Path>
/home/csk/Desktop/cluster/DUD-E-result/tryb1

> <s_m_Source_File>
ligand_docking-pose.sdf

> <i_m_Source_File_Index>
15

> <i_lp_mmshare_version>
53161

> <i_f3d_flags>
0

> <r_lp_tautomer_probability>
1

> <s_lp_Force_Field>
OPLS_2005

> <r_lp_Energy>
96.311281

> <b_lp_Chiralities_Consistent>
1

> <s_lp_Variant>
113956-1

> <s_i_glide_gridfile>
glide-grid_2zec

> <i_i_glide_lignum>
38

> <i_i_glide_rotatable_bonds>
8

> <r_i_docking_score>
-7.17717694627167

> <r_i_glide_ligand_efficiency>
-0.205062198464905

> <r_i_glide_ligand_efficiency_sa>
-0.670772048096814

> <r_i_glide_ligand_efficiency_ln>
-1.5755496285667

> <r_i_glide_gscore>
-7.17717694627167

> <r_i_glide_lipo>
-2.91016015355781

> <r_i_glide_hbond>
-0.40348955599964

> <r_i_glide_metal>
0

> <r_i_glide_rewards>
-0.884621941086752

> <r_i_glide_evdw>
-45.99951171875

> <r_i_glide_ecoul>
-8.65475463867188

> <r_i_glide_erotb>
0.619458413938257

> <r_i_glide_esite>
-0.000174927827442153

> <r_i_glide_emodel>
-73.8763715930576

> <r_i_glide_energy>
-54.6542663574219

> <r_i_glide_einternal>
8.90559005737305

> <i_i_glide_confnum>
114

> <i_i_glide_posenum>
213

> <r_i_glide_eff_state_penalty>
0

> <s_user_duplicate_titles>
113956

> <s_m_subgroup_title>
dock_pv

> <s_m_subgroupid>
dock_pv1

> <b_m_subgroup_collapsed>
0

$$$$
240971
                    3D
 Schrodinger Suite 2021-1.
 50 52  0  0  1  0            999 V2000
   29.0661   72.6295   83.1896 C   0  0  0  0  0  0
   28.1516   73.6354   82.8861 C   0  0  0  0  0  0
   28.0601   74.7534   83.7092 C   0  0  0  0  0  0
   28.8731   74.8578   84.8387 C   0  0  0  0  0  0
   29.7923   73.8501   85.1377 C   0  0  0  0  0  0
   29.8885   72.7351   84.3085 C   0  0  0  0  0  0
   28.7468   76.0804   85.7445 C   0  0  0  0  0  0
   28.2551   75.7471   87.0451 O   0  0  0  0  0  0
   26.9798   75.3522   87.2433 C   0  0  0  0  0  0
   26.1537   75.1520   86.3516 O   0  0  0  0  0  0
   26.7633   75.1904   88.6009 N   0  0  0  0  0  0
   25.4782   74.7636   89.1647 C   0  0  0  0  0  0
   24.2920   75.7031   88.8490 C   0  0  0  0  0  0
   24.5554   77.1773   89.2414 C   0  0  0  0  0  0
   23.4643   78.1533   88.8043 C   0  0  0  0  0  0
   22.9496   78.9305   89.6097 O   0  0  0  0  0  0
   23.1494   78.0415   87.5001 O   0  0  0  0  0  0
   22.2026   78.9131   86.8989 C   0  0  0  0  0  0
   21.7303   78.3390   85.6232 N   0  0  0  0  0  0
   20.7100   77.3689   85.4881 C   0  0  0  0  0  0
   20.1504   76.7538   86.3945 O   0  0  0  0  0  0
   20.4387   77.2226   84.0287 C   0  0  0  0  0  0
   19.4666   76.4045   83.4495 C   0  0  0  0  0  0
   19.3511   76.3549   82.0601 C   0  0  0  0  0  0
   20.1602   77.1521   81.2500 C   0  0  0  0  0  0
   21.1312   77.9757   81.8236 C   0  0  0  0  0  0
   21.2741   77.9697   83.2065 C   0  0  0  0  0  0
   22.5597   78.7819   84.1585 S   0  0  0  0  0  0
   23.8306   78.0604   84.0509 O   0  0  0  0  0  0
   22.5501   80.2392   84.0101 O   0  0  0  0  0  0
   29.1407   71.7645   82.5462 H   0  0  0  0  0  0
   27.5161   73.5519   82.0169 H   0  0  0  0  0  0
   27.3501   75.5319   83.4754 H   0  0  0  0  0  0
   30.4238   73.9274   86.0108 H   0  0  0  0  0  0
   30.5960   71.9524   84.5323 H   0  0  0  0  0  0
   28.1099   76.8356   85.2816 H   0  0  0  0  0  0
   29.7323   76.5370   85.8496 H   0  0  0  0  0  0
   27.5338   75.3787   89.2239 H   0  0  0  0  0  0
   25.6265   74.7342   90.2453 H   0  0  0  0  0  0
   25.2590   73.7431   88.8461 H   0  0  0  0  0  0
   23.3993   75.3307   89.3539 H   0  0  0  0  0  0
   24.0539   75.6260   87.7860 H   0  0  0  0  0  0
   25.4837   77.5238   88.7872 H   0  0  0  0  0  0
   24.6988   77.2604   90.3175 H   0  0  0  0  0  0
   22.7008   79.8621   86.6916 H   0  0  0  0  0  0
   21.3500   79.1521   87.5280 H   0  0  0  0  0  0
   18.8303   75.7745   84.0527 H   0  0  0  0  0  0
   18.6085   75.7078   81.6172 H   0  0  0  0  0  0
   20.0370   77.1366   80.1752 H   0  0  0  0  0  0
   21.7505   78.5923   81.1967 H   0  0  0  0  0  0
  1  6  1  0  0  0
  1  2  2  0  0  0
  1 31  1  0  0  0
  2  3  1  0  0  0
  2 32  1  0  0  0
  3  4  2  0  0  0
  3 33  1  0  0  0
  4  5  1  0  0  0
  4  7  1  0  0  0
  5  6  2  0  0  0
  5 34  1  0  0  0
  6 35  1  0  0  0
  7  8  1  0  0  0
  7 36  1  0  0  0
  7 37  1  0  0  0
  8  9  1  0  0  0
  9 10  2  0  0  0
  9 11  1  0  0  0
 11 12  1  0  0  0
 11 38  1  0  0  0
 12 13  1  0  0  0
 12 39  1  0  0  0
 12 40  1  0  0  0
 13 14  1  0  0  0
 13 41  1  0  0  0
 13 42  1  0  0  0
 14 15  1  0  0  0
 14 43  1  0  0  0
 14 44  1  0  0  0
 15 16  2  0  0  0
 15 17  1  0  0  0
 17 18  1  0  0  0
 18 19  1  0  0  0
 18 45  1  0  0  0
 18 46  1  0  0  0
 19 28  1  0  0  0
 19 20  1  0  0  0
 20 21  2  0  0  0
 20 22  1  0  0  0
 22 27  2  0  0  0
 22 23  1  0  0  0
 23 24  2  0  0  0
 23 47  1  0  0  0
 24 25  1  0  0  0
 24 48  1  0  0  0
 25 26  2  0  0  0
 25 49  1  0  0  0
 26 27  1  0  0  0
 26 50  1  0  0  0
 27 28  1  0  0  0
 28 29  2  0  0  0
 28 30  2  0  0  0
M  END
> <s_m_entry_id>
40712

> <s_m_entry_name>
ligand_docking-pose.16

> <s_m_Source_Path>
/home/csk/Desktop/cluster/DUD-E-result/tryb1

> <s_m_Source_File>
ligand_docking-pose.sdf

> <i_m_Source_File_Index>
16

> <i_lp_mmshare_version>
53161

> <i_f3d_flags>
0

> <r_lp_tautomer_probability>
1

> <s_lp_Force_Field>
OPLS_2005

> <r_lp_Energy>
26.513358

> <b_lp_Chiralities_Consistent>
1

> <s_lp_Variant>
240971-1

> <s_i_glide_gridfile>
glide-grid_2zec

> <i_i_glide_lignum>
136

> <i_i_glide_rotatable_bonds>
11

> <r_i_docking_score>
-7.17313773255077

> <r_i_glide_ligand_efficiency>
-0.239104591085026

> <r_i_glide_ligand_efficiency_sa>
-0.742953556899886

> <r_i_glide_ligand_efficiency_ln>
-1.62981505043106

> <r_i_glide_gscore>
-7.17313773255077

> <r_i_glide_lipo>
-2.55368199284619

> <r_i_glide_hbond>
-0.318863432119693

> <r_i_glide_metal>
0

> <r_i_glide_rewards>
-1.99659004194826

> <r_i_glide_evdw>
-41.5072975158691

> <r_i_glide_ecoul>
-7.74135875701904

> <r_i_glide_erotb>
0.957629466231096

> <r_i_glide_esite>
-0.0250630425214067

> <r_i_glide_emodel>
-68.8593876451859

> <r_i_glide_energy>
-49.2486562728882

> <r_i_glide_einternal>
5.43336057662964

> <i_i_glide_confnum>
9

> <i_i_glide_posenum>
58

> <r_i_glide_eff_state_penalty>
0

> <s_user_duplicate_titles>
240971

> <s_m_subgroup_title>
dock_pv

> <s_m_subgroupid>
dock_pv1

> <b_m_subgroup_collapsed>
0

$$$$
113047
                    3D
 Schrodinger Suite 2021-1.
 50 52  0  0  1  0            999 V2000
   30.4643   72.4178   83.1368 C   0  0  0  0  0  0
   30.8657   72.9718   84.3492 C   0  0  0  0  0  0
   30.0408   73.8831   85.0032 C   0  0  0  0  0  0
   28.8050   74.2431   84.4398 C   0  0  0  0  0  0
   28.4240   73.6975   83.2105 C   0  0  0  0  0  0
   29.2488   72.7794   82.5645 C   0  0  0  0  0  0
   27.8772   75.1182   85.0378 N   0  0  0  0  0  0
   27.8268   75.5856   86.3086 C   0  0  0  0  0  0
   28.7374   75.4867   87.1295 O   0  0  0  0  0  0
   26.6462   76.1530   86.6472 N   0  0  0  0  0  0
   26.1903   76.7740   87.9364 C   0  0  1  0  0  0
   24.8422   77.1181   87.2437 C   0  0  2  0  0  0
   25.4016   76.3296   86.0297 C   0  0  0  0  0  0
   24.9498   75.9521   84.9535 O   0  0  0  0  0  0
   24.6083   78.6263   86.9418 C   0  0  0  0  0  0
   23.3953   78.9937   86.0378 C   0  0  0  0  0  0
   23.7049   79.0317   84.5219 C   0  0  0  0  0  0
   22.4695   79.3858   83.6699 C   0  0  0  0  0  0
   21.3576   78.4636   83.9661 N   0  0  0  0  0  0
   20.9519   78.5405   85.3823 C   0  0  0  0  0  0
   22.1294   78.1460   86.2922 C   0  0  0  0  0  0
   20.4875   77.9142   82.9645 C   0  0  0  0  0  0
   19.3615   77.4117   83.2173 N   0  0  0  0  0  0
   20.9506   77.9530   81.6336 N   0  0  0  0  0  0
   25.9891   75.7846   89.1119 C   0  0  0  0  0  0
   25.9308   74.5780   88.9856 O   0  0  0  0  0  0
   25.8732   76.4734   90.2828 O   0  0  0  0  0  0
   26.8196   77.6212   88.2158 H   0  0  0  0  0  0
   23.9504   76.6743   87.6896 H   0  0  0  0  0  0
   31.1025   71.7058   82.6331 H   0  0  0  0  0  0
   31.8156   72.6938   84.7818 H   0  0  0  0  0  0
   30.3856   74.2905   85.9400 H   0  0  0  0  0  0
   27.4826   73.9685   82.7522 H   0  0  0  0  0  0
   28.9499   72.3525   81.6186 H   0  0  0  0  0  0
   27.0673   75.3179   84.4669 H   0  0  0  0  0  0
   24.4745   79.1324   87.8994 H   0  0  0  0  0  0
   25.5125   79.0740   86.5247 H   0  0  0  0  0  0
   23.1089   80.0191   86.2836 H   0  0  0  0  0  0
   24.5049   79.7471   84.3280 H   0  0  0  0  0  0
   24.1048   78.0897   84.1576 H   0  0  0  0  0  0
   22.1497   80.4040   83.8906 H   0  0  0  0  0  0
   22.7538   79.3732   82.6173 H   0  0  0  0  0  0
   20.6223   79.5529   85.6123 H   0  0  0  0  0  0
   20.1086   77.8869   85.6056 H   0  0  0  0  0  0
   22.3311   77.0857   86.1498 H   0  0  0  0  0  0
   21.8372   78.2303   87.3396 H   0  0  0  0  0  0
   19.1605   77.4372   84.2037 H   0  0  0  0  0  0
   20.3805   77.6231   80.8671 H   0  0  0  0  0  0
   21.8428   78.3458   81.3704 H   0  0  0  0  0  0
   25.9726   77.4189   90.1676 H   0  0  0  0  0  0
  1  6  1  0  0  0
  1  2  2  0  0  0
  1 30  1  0  0  0
  2  3  1  0  0  0
  2 31  1  0  0  0
  3  4  2  0  0  0
  3 32  1  0  0  0
  4  5  1  0  0  0
  4  7  1  0  0  0
  5  6  2  0  0  0
  5 33  1  0  0  0
  6 34  1  0  0  0
  7  8  1  0  0  0
  7 35  1  0  0  0
  8  9  2  0  0  0
  8 10  1  0  0  0
 10 13  1  0  0  0
 10 11  1  0  0  0
 11 28  1  0  0  0
 11 12  1  0  0  0
 11 25  1  0  0  0
 12 29  1  0  0  0
 12 13  1  0  0  0
 12 15  1  0  0  0
 13 14  2  0  0  0
 15 16  1  0  0  0
 15 36  1  0  0  0
 15 37  1  0  0  0
 16 21  1  0  0  0
 16 17  1  0  0  0
 16 38  1  0  0  0
 17 18  1  0  0  0
 17 39  1  0  0  0
 17 40  1  0  0  0
 18 19  1  0  0  0
 18 41  1  0  0  0
 18 42  1  0  0  0
 19 20  1  0  0  0
 19 22  1  0  0  0
 20 21  1  0  0  0
 20 43  1  0  0  0
 20 44  1  0  0  0
 21 45  1  0  0  0
 21 46  1  0  0  0
 22 23  2  3  0  0
 22 24  1  0  0  0
 23 47  1  0  0  0
 24 48  1  0  0  0
 24 49  1  0  0  0
 25 26  2  0  0  0
 25 27  1  0  0  0
 27 50  1  0  0  0
M  END
> <s_m_entry_id>
40713

> <s_m_entry_name>
ligand_docking-pose.17

> <s_m_Source_Path>
/home/csk/Desktop/cluster/DUD-E-result/tryb1

> <s_m_Source_File>
ligand_docking-pose.sdf

> <i_m_Source_File_Index>
17

> <i_lp_mmshare_version>
53161

> <i_f3d_flags>
0

> <r_lp_tautomer_probability>
1

> <s_lp_Force_Field>
OPLS_2005

> <r_lp_Energy>
37.670377

> <b_lp_Chiralities_Consistent>
1

> <s_lp_Variant>
113047-2

> <s_i_glide_gridfile>
glide-grid_2zec

> <i_i_glide_lignum>
153

> <i_i_glide_rotatable_bonds>
8

> <r_i_docking_score>
-7.16801774913718

> <r_i_glide_ligand_efficiency>
-0.265482138856933

> <r_i_glide_ligand_efficiency_sa>
-0.796446415695812

> <r_i_glide_ligand_efficiency_ln>
-1.66859635799074

> <r_i_glide_gscore>
-7.16801774913718

> <r_i_glide_lipo>
-2.56361197836106

> <r_i_glide_hbond>
-0.720096915814733

> <r_i_glide_metal>
0

> <r_i_glide_rewards>
-1.45568531962234

> <r_i_glide_evdw>
-38.0296974182129

> <r_i_glide_ecoul>
-8.96887493133545

> <r_i_glide_erotb>
0.831575372549487

> <r_i_glide_esite>
-0.0133827972775727

> <r_i_glide_emodel>
-65.0405756872127

> <r_i_glide_energy>
-46.9985723495483

> <r_i_glide_einternal>
5.51277780532837

> <i_i_glide_confnum>
28

> <i_i_glide_posenum>
17

> <r_i_glide_eff_state_penalty>
0

> <s_user_duplicate_titles>
113047

> <s_m_subgroup_title>
dock_pv

> <s_m_subgroupid>
dock_pv1

> <b_m_subgroup_collapsed>
0

$$$$
173804
                    3D
 Schrodinger Suite 2021-1.
 71 74  0  0  1  0            999 V2000
   19.4255   76.3634   82.1966 C   0  0  0  0  0  0
   20.3702   77.1520   81.5456 C   0  0  0  0  0  0
   21.2718   77.9096   82.2923 C   0  0  0  0  0  0
   21.2247   77.8917   83.6949 C   0  0  0  0  0  0
   20.2340   77.1317   84.3297 C   0  0  0  0  0  0
   19.3519   76.3527   83.5844 C   0  0  0  0  0  0
   22.2418   78.6558   84.5677 C   0  0  0  0  0  0
   23.1526   79.6578   83.7813 C   0  0  0  0  0  0
   24.1893   80.4514   84.5945 C   0  0  0  0  0  0
   24.5425   80.1001   85.7193 O   0  0  0  0  0  0
   24.6925   81.5516   84.0112 N   0  0  0  0  0  0
   25.8203   82.3526   84.5288 C   0  0  2  0  0  0
   25.7901   83.8302   84.0822 C   0  0  0  0  0  0
   25.6140   84.0766   82.5780 C   0  0  0  0  0  0
   26.7157   83.4770   81.6942 C   0  0  0  0  0  0
   26.8875   81.9526   81.8125 C   0  0  0  0  0  0
   27.6057   81.4805   83.0105 N   0  0  0  0  0  0
   27.1575   81.5868   84.3015 C   0  0  0  0  0  0
   27.7798   81.1479   85.2742 O   0  0  0  0  0  0
   28.8647   80.7366   82.7769 C   0  0  0  0  0  0
   28.6365   79.2198   82.5752 C   0  0  0  0  0  0
   27.5069   78.7488   82.4235 O   0  0  0  0  0  0
   29.7739   78.4962   82.5558 N   0  0  0  0  0  0
   29.9508   77.1016   82.4913 C   0  0  0  0  0  0
   31.2156   76.6582   82.1013 C   0  0  0  0  0  0
   31.5073   75.2980   82.0571 C   0  0  0  0  0  0
   30.5357   74.3661   82.4157 C   0  0  0  0  0  0
   29.2593   74.7847   82.8170 C   0  0  0  0  0  0
   28.9714   76.1563   82.8470 C   0  0  0  0  0  0
   28.1534   73.8044   83.2139 C   0  0  0  0  0  0
   28.5495   72.4021   83.2172 N   0  0  0  0  0  0
   23.0238   77.7056   85.4919 C   0  0  0  0  0  0
   22.6262   77.5467   86.8250 C   0  0  0  0  0  0
   23.3749   76.7499   87.6856 C   0  0  0  0  0  0
   24.5374   76.1352   87.2249 C   0  0  0  0  0  0
   24.9507   76.3033   85.9059 C   0  0  0  0  0  0
   24.1845   77.0704   85.0363 C   0  0  0  0  0  0
   18.7423   75.7559   81.6179 H   0  0  0  0  0  0
   20.4100   77.1710   80.4633 H   0  0  0  0  0  0
   22.0079   78.4867   81.7536 H   0  0  0  0  0  0
   20.1753   77.0994   85.4072 H   0  0  0  0  0  0
   18.6298   75.7171   84.0748 H   0  0  0  0  0  0
   21.6309   79.2923   85.2101 H   0  0  0  0  0  0
   23.7322   79.1133   83.0331 H   0  0  0  0  0  0
   22.5260   80.3503   83.2224 H   0  0  0  0  0  0
   24.2781   81.8695   83.1487 H   0  0  0  0  0  0
   25.7078   82.3911   85.6169 H   0  0  0  0  0  0
   24.9821   84.3390   84.6131 H   0  0  0  0  0  0
   26.7021   84.3317   84.4156 H   0  0  0  0  0  0
   25.5911   85.1520   82.4176 H   0  0  0  0  0  0
   24.6405   83.7096   82.2534 H   0  0  0  0  0  0
   27.6665   83.9849   81.8687 H   0  0  0  0  0  0
   26.4506   83.6980   80.6590 H   0  0  0  0  0  0
   27.3502   81.5520   80.9109 H   0  0  0  0  0  0
   25.8866   81.5202   81.8153 H   0  0  0  0  0  0
   29.3489   81.1327   81.8867 H   0  0  0  0  0  0
   29.5757   80.9083   83.5872 H   0  0  0  0  0  0
   30.6340   79.0220   82.5675 H   0  0  0  0  0  0
   31.9863   77.3656   81.8258 H   0  0  0  0  0  0
   32.4857   74.9657   81.7445 H   0  0  0  0  0  0
   30.7922   73.3190   82.3685 H   0  0  0  0  0  0
   27.9916   76.4757   83.1703 H   0  0  0  0  0  0
   27.8051   74.0628   84.2159 H   0  0  0  0  0  0
   27.3125   73.9264   82.5285 H   0  0  0  0  0  0
   28.7255   72.0687   82.2754 H   0  0  0  0  0  0
   29.3919   72.2647   83.7583 H   0  0  0  0  0  0
   21.7501   78.0525   87.2009 H   0  0  0  0  0  0
   23.0656   76.6145   88.7106 H   0  0  0  0  0  0
   25.1294   75.5308   87.8969 H   0  0  0  0  0  0
   25.8565   75.8358   85.5509 H   0  0  0  0  0  0
   24.5165   77.1935   84.0170 H   0  0  0  0  0  0
  1  6  1  0  0  0
  1  2  2  0  0  0
  1 38  1  0  0  0
  2  3  1  0  0  0
  2 39  1  0  0  0
  3  4  2  0  0  0
  3 40  1  0  0  0
  4  5  1  0  0  0
  4  7  1  0  0  0
  5  6  2  0  0  0
  5 41  1  0  0  0
  6 42  1  0  0  0
  7  8  1  0  0  0
  7 32  1  0  0  0
  7 43  1  0  0  0
  8  9  1  0  0  0
  8 44  1  0  0  0
  8 45  1  0  0  0
  9 10  2  0  0  0
  9 11  1  0  0  0
 11 12  1  0  0  0
 11 46  1  0  0  0
 12 18  1  0  0  0
 12 13  1  0  0  0
 12 47  1  0  0  0
 13 14  1  0  0  0
 13 48  1  0  0  0
 13 49  1  0  0  0
 14 15  1  0  0  0
 14 50  1  0  0  0
 14 51  1  0  0  0
 15 16  1  0  0  0
 15 52  1  0  0  0
 15 53  1  0  0  0
 16 17  1  0  0  0
 16 54  1  0  0  0
 16 55  1  0  0  0
 17 18  1  0  0  0
 17 20  1  0  0  0
 18 19  2  0  0  0
 20 21  1  0  0  0
 20 56  1  0  0  0
 20 57  1  0  0  0
 21 22  2  0  0  0
 21 23  1  0  0  0
 23 24  1  0  0  0
 23 58  1  0  0  0
 24 29  1  0  0  0
 24 25  2  0  0  0
 25 26  1  0  0  0
 25 59  1  0  0  0
 26 27  2  0  0  0
 26 60  1  0  0  0
 27 28  1  0  0  0
 27 61  1  0  0  0
 28 29  2  0  0  0
 28 30  1  0  0  0
 29 62  1  0  0  0
 30 31  1  0  0  0
 30 63  1  0  0  0
 30 64  1  0  0  0
 31 65  1  0  0  0
 31 66  1  0  0  0
 32 37  1  0  0  0
 32 33  2  0  0  0
 33 34  1  0  0  0
 33 67  1  0  0  0
 34 35  2  0  0  0
 34 68  1  0  0  0
 35 36  1  0  0  0
 35 69  1  0  0  0
 36 37  2  0  0  0
 36 70  1  0  0  0
 37 71  1  0  0  0
M  END
> <s_m_entry_id>
40714

> <s_m_entry_name>
ligand_docking-pose.18

> <s_m_Source_Path>
/home/csk/Desktop/cluster/DUD-E-result/tryb1

> <s_m_Source_File>
ligand_docking-pose.sdf

> <i_m_Source_File_Index>
18

> <i_lp_mmshare_version>
53161

> <i_f3d_flags>
0

> <r_lp_tautomer_probability>
1

> <s_lp_Force_Field>
OPLS_2005

> <r_lp_Energy>
37.2972

> <b_lp_Chiralities_Consistent>
1

> <s_lp_Variant>
173804-1

> <s_i_glide_gridfile>
glide-grid_2zec

> <i_i_glide_lignum>
109

> <i_i_glide_rotatable_bonds>
11

> <r_i_docking_score>
-7.15445232177279

> <r_i_glide_ligand_efficiency>
-0.193363576264129

> <r_i_glide_ligand_efficiency_sa>
-0.6443303333642

> <r_i_glide_ligand_efficiency_ln>
-1.55163298443323

> <r_i_glide_gscore>
-7.15445232177279

> <r_i_glide_lipo>
-4.00797176853427

> <r_i_glide_hbond>
-0.306647242179802

> <r_i_glide_metal>
0

> <r_i_glide_rewards>
-0.237446013437472

> <r_i_glide_evdw>
-49.7127227783203

> <r_i_glide_ecoul>
-6.23354244232178

> <r_i_glide_erotb>
0.82082696915132

> <r_i_glide_esite>
-0.0025467615082828

> <r_i_glide_emodel>
-76.79793721077

> <r_i_glide_energy>
-55.9462652206421

> <r_i_glide_einternal>
7.86077880859375

> <i_i_glide_confnum>
3

> <i_i_glide_posenum>
361

> <r_i_glide_eff_state_penalty>
0

> <s_user_duplicate_titles>
173804

> <s_m_subgroup_title>
dock_pv

> <s_m_subgroupid>
dock_pv1

> <b_m_subgroup_collapsed>
0

$$$$
114309
                    3D
 Schrodinger Suite 2021-1.
 70 74  0  0  1  0            999 V2000
   20.0649   76.9066   81.9560 C   0  0  0  0  0  0
   21.2967   77.5249   81.7760 C   0  0  0  0  0  0
   21.9590   78.0767   82.8693 C   0  0  0  0  0  0
   21.3565   78.0695   84.1385 C   0  0  0  0  0  0
   20.1260   77.4348   84.3025 C   0  0  0  0  0  0
   19.4904   76.8348   83.2208 C   0  0  0  0  0  0
   21.9035   78.6174   85.2854 O   0  0  0  0  0  0
   23.0845   79.3319   85.3130 C   0  0  0  0  0  0
   23.3498   80.3519   84.3870 C   0  0  0  0  0  0
   24.5561   81.0494   84.4144 C   0  0  0  0  0  0
   25.4922   80.7685   85.4046 C   0  0  0  0  0  0
   25.2205   79.7972   86.3635 C   0  0  0  0  0  0
   24.0239   79.0663   86.3259 C   0  0  0  0  0  0
   23.7533   78.0341   87.3972 C   0  0  0  0  0  0
   22.7841   78.1799   88.1478 O   0  0  0  0  0  0
   24.6651   77.0379   87.5557 N   0  0  0  0  0  0
   24.8262   76.3469   88.8446 C   0  0  0  0  0  0
   26.2872   76.5871   89.3109 C   0  0  0  0  0  0
   27.2180   76.1349   88.2577 N   0  0  0  0  0  0
   27.0212   76.7548   86.9292 C   0  0  0  0  0  0
   25.5510   76.5625   86.4786 C   0  0  0  0  0  0
   27.7888   74.9086   88.3608 C   0  0  0  0  0  0
   27.1608   73.9519   88.8157 O   0  0  0  0  0  0
   29.0761   74.7777   87.9482 N   0  0  0  0  0  0
   29.9375   73.5520   87.8264 C   0  0  1  0  0  0
   31.0667   74.4493   87.2504 C   0  0  2  0  0  0
   30.0495   75.6103   87.3650 C   0  0  0  0  0  0
   30.0788   76.8032   87.0684 O   0  0  0  0  0  0
   31.5623   74.1946   85.7951 C   0  0  0  0  0  0
   30.7399   73.2521   84.8760 C   0  0  0  0  0  0
   29.3839   73.8293   84.4184 C   0  0  0  0  0  0
   28.6003   72.8185   83.5576 C   0  0  0  0  0  0
   29.3901   72.3523   82.4166 N   0  0  1  0  0  0
   30.7435   71.8825   82.7221 C   0  0  0  0  0  0
   31.5122   72.8982   83.5909 C   0  0  0  0  0  0
   30.3877   72.8633   89.1281 C   0  0  0  0  0  0
   29.9631   73.1035   90.2362 O   0  0  0  0  0  0
   31.3481   71.9520   88.8170 O   0  0  0  0  0  0
   29.4852   72.8313   87.1478 H   0  0  0  0  0  0
   31.9320   74.6248   87.8928 H   0  0  0  0  0  0
   19.5627   76.4658   81.1082 H   0  0  0  0  0  0
   21.7485   77.5514   80.7963 H   0  0  0  0  0  0
   22.9341   78.5035   82.6963 H   0  0  0  0  0  0
   19.6718   77.3981   85.2804 H   0  0  0  0  0  0
   18.5505   76.3208   83.3522 H   0  0  0  0  0  0
   22.6216   80.6036   83.6297 H   0  0  0  0  0  0
   24.7518   81.8203   83.6836 H   0  0  0  0  0  0
   26.4156   81.3281   85.4467 H   0  0  0  0  0  0
   25.9452   79.6275   87.1470 H   0  0  0  0  0  0
   24.6394   75.2811   88.7049 H   0  0  0  0  0  0
   24.1215   76.7008   89.5981 H   0  0  0  0  0  0
   26.4987   76.1244   90.2779 H   0  0  0  0  0  0
   26.4257   77.6641   89.4316 H   0  0  0  0  0  0
   27.2261   77.8202   87.0327 H   0  0  0  0  0  0
   27.6951   76.3542   86.1715 H   0  0  0  0  0  0
   25.3612   77.0571   85.5235 H   0  0  0  0  0  0
   25.3471   75.5023   86.3247 H   0  0  0  0  0  0
   32.5560   73.7543   85.8911 H   0  0  0  0  0  0
   31.7341   75.1461   85.2861 H   0  0  0  0  0  0
   30.5583   72.3122   85.3984 H   0  0  0  0  0  0
   29.5094   74.7730   83.8837 H   0  0  0  0  0  0
   28.7723   74.1038   85.2749 H   0  0  0  0  0  0
   27.6872   73.2780   83.1804 H   0  0  0  0  0  0
   28.3099   71.9525   84.1522 H   0  0  0  0  0  0
   28.8941   71.6587   81.8608 H   0  0  0  0  0  0
   31.2731   71.7239   81.7821 H   0  0  0  0  0  0
   30.6817   70.9126   83.2191 H   0  0  0  0  0  0
   32.4832   72.4757   83.8523 H   0  0  0  0  0  0
   31.7645   73.7882   83.0114 H   0  0  0  0  0  0
   31.6781   71.4656   89.5833 H   0  0  0  0  0  0
  1  6  1  0  0  0
  1  2  2  0  0  0
  1 41  1  0  0  0
  2  3  1  0  0  0
  2 42  1  0  0  0
  3  4  2  0  0  0
  3 43  1  0  0  0
  4  5  1  0  0  0
  4  7  1  0  0  0
  5  6  2  0  0  0
  5 44  1  0  0  0
  6 45  1  0  0  0
  7  8  1  0  0  0
  8 13  1  0  0  0
  8  9  2  0  0  0
  9 10  1  0  0  0
  9 46  1  0  0  0
 10 11  2  0  0  0
 10 47  1  0  0  0
 11 12  1  0  0  0
 11 48  1  0  0  0
 12 13  2  0  0  0
 12 49  1  0  0  0
 13 14  1  0  0  0
 14 15  2  0  0  0
 14 16  1  0  0  0
 16 21  1  0  0  0
 16 17  1  0  0  0
 17 18  1  0  0  0
 17 50  1  0  0  0
 17 51  1  0  0  0
 18 19  1  0  0  0
 18 52  1  0  0  0
 18 53  1  0  0  0
 19 20  1  0  0  0
 19 22  1  0  0  0
 20 21  1  0  0  0
 20 54  1  0  0  0
 20 55  1  0  0  0
 21 56  1  0  0  0
 21 57  1  0  0  0
 22 23  2  0  0  0
 22 24  1  0  0  0
 24 27  1  0  0  0
 24 25  1  0  0  0
 25 39  1  0  0  0
 25 26  1  0  0  0
 25 36  1  0  0  0
 26 40  1  0  0  0
 26 27  1  0  0  0
 26 29  1  0  0  0
 27 28  2  0  0  0
 29 30  1  0  0  0
 29 58  1  0  0  0
 29 59  1  0  0  0
 30 35  1  0  0  0
 30 31  1  0  0  0
 30 60  1  0  0  0
 31 32  1  0  0  0
 31 61  1  0  0  0
 31 62  1  0  0  0
 32 33  1  0  0  0
 32 63  1  0  0  0
 32 64  1  0  0  0
 33 34  1  0  0  0
 33 65  1  0  0  0
 34 35  1  0  0  0
 34 66  1  0  0  0
 34 67  1  0  0  0
 35 68  1  0  0  0
 35 69  1  0  0  0
 36 37  2  0  0  0
 36 38  1  0  0  0
 38 70  1  0  0  0
M  END
> <s_m_entry_id>
40715

> <s_m_entry_name>
ligand_docking-pose.19

> <s_m_Source_Path>
/home/csk/Desktop/cluster/DUD-E-result/tryb1

> <s_m_Source_File>
ligand_docking-pose.sdf

> <i_m_Source_File_Index>
19

> <i_lp_mmshare_version>
53161

> <i_f3d_flags>
0

> <r_lp_tautomer_probability>
1

> <s_lp_Force_Field>
OPLS_2005

> <r_lp_Energy>
98.742278

> <b_lp_Chiralities_Consistent>
1

> <s_lp_Variant>
114309-1

> <s_i_glide_gridfile>
glide-grid_2zec

> <i_i_glide_lignum>
164

> <i_i_glide_rotatable_bonds>
10

> <r_i_docking_score>
-7.14899917058401

> <r_i_glide_ligand_efficiency>
-0.188131557120632

> <r_i_glide_ligand_efficiency_sa>
-0.632493667515442

> <r_i_glide_ligand_efficiency_ln>
-1.54153452342669

> <r_i_glide_gscore>
-7.14899917058401

> <r_i_glide_lipo>
-3.37729267472679

> <r_i_glide_hbond>
-0.469075663099977

> <r_i_glide_metal>
0

> <r_i_glide_rewards>
-0.303308366757659

> <r_i_glide_evdw>
-47.1759414672852

> <r_i_glide_ecoul>
-8.77767848968506

> <r_i_glide_erotb>
0.682540028067472

> <r_i_glide_esite>
-0.00641364725004231

> <r_i_glide_emodel>
-75.663555159122

> <r_i_glide_energy>
-55.9536199569702

> <r_i_glide_einternal>
9.67455863952637

> <i_i_glide_confnum>
39

> <i_i_glide_posenum>
74

> <r_i_glide_eff_state_penalty>
0

> <s_user_duplicate_titles>
114309

> <s_m_subgroup_title>
dock_pv

> <s_m_subgroupid>
dock_pv1

> <b_m_subgroup_collapsed>
0

$$$$
173821
                    3D
 Schrodinger Suite 2021-1.
 68 71  0  0  1  0            999 V2000
   22.8479   79.3182   86.9418 C   0  0  0  0  0  0
   22.3689   78.8739   85.5646 C   0  0  0  0  0  0
   21.3249   77.9479   85.4807 C   0  0  0  0  0  0
   20.8419   77.5314   84.2422 C   0  0  0  0  0  0
   21.4249   78.0024   83.0588 C   0  0  0  0  0  0
   22.4937   78.8951   83.1436 C   0  0  0  0  0  0
   22.9481   79.3673   84.3825 C   0  0  0  0  0  0
   23.8780   80.4173   84.4611 N   0  0  0  0  0  0
   24.9193   80.6838   83.6511 C   0  0  0  0  0  0
   25.3694   79.8890   82.8225 O   0  0  0  0  0  0
   25.5208   82.0958   83.8516 C   0  0  0  0  0  0
   26.9018   82.2019   83.3345 N   0  0  0  0  0  0
   27.9701   81.9644   84.3231 C   0  0  0  0  0  0
   28.9317   83.1467   84.5455 C   0  0  0  0  0  0
   30.0212   83.3036   83.4727 C   0  0  0  0  0  0
   29.4925   83.5445   82.0481 C   0  0  0  0  0  0
   28.5482   82.4621   81.4773 C   0  0  2  0  0  0
   27.0835   82.4721   82.0004 C   0  0  0  0  0  0
   26.1609   82.7412   81.2283 O   0  0  0  0  0  0
   29.0702   81.0893   81.5996 N   0  0  0  0  0  0
   29.1202   80.1450   80.6476 C   0  0  0  0  0  0
   28.9501   80.3694   79.4488 O   0  0  0  0  0  0
   29.3765   78.7465   81.1509 C   0  0  0  0  0  0
   30.1884   77.8787   80.4158 C   0  0  0  0  0  0
   30.4000   76.5746   80.8560 C   0  0  0  0  0  0
   29.7789   76.0985   82.0177 C   0  0  0  0  0  0
   28.9683   76.9736   82.7505 C   0  0  0  0  0  0
   28.7722   78.2850   82.3286 C   0  0  0  0  0  0
   29.9350   74.6696   82.4278 C   0  0  0  0  0  0
   28.8385   73.9459   82.9170 C   0  0  0  0  0  0
   28.9617   72.5960   83.2364 C   0  0  0  0  0  0
   30.1897   71.9601   83.0800 C   0  0  0  0  0  0
   31.2948   72.6626   82.6090 C   0  0  0  0  0  0
   31.1655   74.0112   82.2830 C   0  0  0  0  0  0
   20.9287   77.6192   81.6640 C   0  0  0  0  0  0
   19.7515   76.7637   81.6511 N   0  0  0  0  0  0
   22.1658   79.0071   87.7352 H   0  0  0  0  0  0
   23.8352   78.8997   87.1405 H   0  0  0  0  0  0
   22.9349   80.4018   86.9999 H   0  0  0  0  0  0
   20.8744   77.5592   86.3811 H   0  0  0  0  0  0
   20.0165   76.8351   84.2125 H   0  0  0  0  0  0
   22.9278   79.2738   82.2290 H   0  0  0  0  0  0
   23.7479   81.0399   85.2423 H   0  0  0  0  0  0
   24.8744   82.8306   83.3681 H   0  0  0  0  0  0
   25.5040   82.3597   84.9101 H   0  0  0  0  0  0
   27.5355   81.6484   85.2722 H   0  0  0  0  0  0
   28.5626   81.1065   84.0097 H   0  0  0  0  0  0
   28.3684   84.0758   84.6519 H   0  0  0  0  0  0
   29.4347   82.9959   85.5013 H   0  0  0  0  0  0
   30.6635   84.1420   83.7473 H   0  0  0  0  0  0
   30.6692   82.4255   83.4790 H   0  0  0  0  0  0
   28.9857   84.5099   82.0192 H   0  0  0  0  0  0
   30.3454   83.6584   81.3773 H   0  0  0  0  0  0
   28.4612   82.6976   80.4125 H   0  0  0  0  0  0
   29.4372   80.8427   82.5050 H   0  0  0  0  0  0
   30.6542   78.2059   79.4964 H   0  0  0  0  0  0
   31.0160   75.9173   80.2586 H   0  0  0  0  0  0
   28.4701   76.6359   83.6474 H   0  0  0  0  0  0
   28.1178   78.9240   82.9069 H   0  0  0  0  0  0
   27.8721   74.4189   83.0169 H   0  0  0  0  0  0
   28.1060   72.0394   83.5877 H   0  0  0  0  0  0
   30.2852   70.9088   83.3101 H   0  0  0  0  0  0
   32.2424   72.1581   82.4847 H   0  0  0  0  0  0
   32.0285   74.5437   81.9107 H   0  0  0  0  0  0
   21.7403   77.1446   81.1088 H   0  0  0  0  0  0
   20.6743   78.5367   81.1320 H   0  0  0  0  0  0
   19.3896   76.7403   80.7056 H   0  0  0  0  0  0
   20.0271   75.8150   81.8815 H   0  0  0  0  0  0
  1  2  1  0  0  0
  1 37  1  0  0  0
  1 38  1  0  0  0
  1 39  1  0  0  0
  2  7  1  0  0  0
  2  3  2  0  0  0
  3  4  1  0  0  0
  3 40  1  0  0  0
  4  5  2  0  0  0
  4 41  1  0  0  0
  5  6  1  0  0  0
  5 35  1  0  0  0
  6  7  2  0  0  0
  6 42  1  0  0  0
  7  8  1  0  0  0
  8  9  1  0  0  0
  8 43  1  0  0  0
  9 10  2  0  0  0
  9 11  1  0  0  0
 11 12  1  0  0  0
 11 44  1  0  0  0
 11 45  1  0  0  0
 12 18  1  0  0  0
 12 13  1  0  0  0
 13 14  1  0  0  0
 13 46  1  0  0  0
 13 47  1  0  0  0
 14 15  1  0  0  0
 14 48  1  0  0  0
 14 49  1  0  0  0
 15 16  1  0  0  0
 15 50  1  0  0  0
 15 51  1  0  0  0
 16 17  1  0  0  0
 16 52  1  0  0  0
 16 53  1  0  0  0
 17 18  1  0  0  0
 17 20  1  0  0  0
 17 54  1  0  0  0
 18 19  2  0  0  0
 20 21  1  0  0  0
 20 55  1  0  0  0
 21 22  2  0  0  0
 21 23  1  0  0  0
 23 28  1  0  0  0
 23 24  2  0  0  0
 24 25  1  0  0  0
 24 56  1  0  0  0
 25 26  2  0  0  0
 25 57  1  0  0  0
 26 27  1  0  0  0
 26 29  1  0  0  0
 27 28  2  0  0  0
 27 58  1  0  0  0
 28 59  1  0  0  0
 29 34  1  0  0  0
 29 30  2  0  0  0
 30 31  1  0  0  0
 30 60  1  0  0  0
 31 32  2  0  0  0
 31 61  1  0  0  0
 32 33  1  0  0  0
 32 62  1  0  0  0
 33 34  2  0  0  0
 33 63  1  0  0  0
 34 64  1  0  0  0
 35 36  1  0  0  0
 35 65  1  0  0  0
 35 66  1  0  0  0
 36 67  1  0  0  0
 36 68  1  0  0  0
M  END
> <s_m_entry_id>
40717

> <s_m_entry_name>
ligand_docking-pose.21

> <s_m_Source_Path>
/home/csk/Desktop/cluster/DUD-E-result/tryb1

> <s_m_Source_File>
ligand_docking-pose.sdf

> <i_m_Source_File_Index>
21

> <i_lp_mmshare_version>
53161

> <i_f3d_flags>
0

> <r_lp_tautomer_probability>
1

> <s_lp_Force_Field>
OPLS_2005

> <r_lp_Energy>
37.953532

> <b_lp_Chiralities_Consistent>
1

> <s_lp_Variant>
173821-2

> <s_i_glide_gridfile>
glide-grid_2zec

> <i_i_glide_lignum>
197

> <i_i_glide_rotatable_bonds>
9

> <r_i_docking_score>
-7.14543236506203

> <r_i_glide_ligand_efficiency>
-0.198484232362834

> <r_i_glide_ligand_efficiency_sa>
-0.655380494531919

> <r_i_glide_ligand_efficiency_ln>
-1.55894029478339

> <r_i_glide_gscore>
-7.14543236506203

> <r_i_glide_lipo>
-3.85096946360598

> <r_i_glide_hbond>
-0.284807824505592

> <r_i_glide_metal>
0

> <r_i_glide_rewards>
-0.359700032448004

> <r_i_glide_evdw>
-51.6782493591309

> <r_i_glide_ecoul>
-5.01963186264038

> <r_i_glide_erotb>
0.691880766336124

> <r_i_glide_esite>
-0.00497856348598398

> <r_i_glide_emodel>
-74.632448953342

> <r_i_glide_energy>
-56.6978812217712

> <r_i_glide_einternal>
8.92100429534912

> <i_i_glide_confnum>
1

> <i_i_glide_posenum>
307

> <r_i_glide_eff_state_penalty>
0

> <s_user_duplicate_titles>
173821

> <s_m_subgroup_title>
dock_pv

> <s_m_subgroupid>
dock_pv1

> <b_m_subgroup_collapsed>
0

$$$$
180803
                    3D
 Schrodinger Suite 2021-1.
 78 81  0  0  1  0            999 V2000
   28.9474   72.5706   83.2357 C   0  0  0  0  0  0
   28.8213   73.9584   83.1910 C   0  0  0  0  0  0
   29.8928   74.7312   82.7522 C   0  0  0  0  0  0
   31.0811   74.1116   82.3479 C   0  0  0  0  0  0
   31.2032   72.7208   82.4040 C   0  0  0  0  0  0
   30.1374   71.9517   82.8553 C   0  0  0  0  0  0
   32.2341   74.9509   81.8185 C   0  0  0  0  0  0
   32.0197   75.3799   80.3575 C   0  0  0  0  0  0
   33.2049   76.1808   79.7820 C   0  0  0  0  0  0
   32.9664   76.6813   78.3413 C   0  0  0  0  0  0
   31.8864   77.6659   78.2509 N   0  0  0  0  0  0
   32.0240   78.9805   78.5169 C   0  0  0  0  0  0
   33.1359   79.5099   78.6018 O   0  0  0  0  0  0
   30.8612   79.6825   78.6226 N   0  0  0  0  0  0
   29.6135   79.0851   79.1470 C   0  0  0  0  0  0
   29.5173   79.4140   80.6611 C   0  0  0  0  0  0
   29.6088   80.8783   80.8434 N   0  0  0  0  0  0
   30.8171   81.5043   80.2754 C   0  0  0  0  0  0
   30.9095   81.1505   78.7660 C   0  0  0  0  0  0
   28.4672   81.6093   80.9070 C   0  0  0  0  0  0
   28.1435   82.3951   80.0146 O   0  0  0  0  0  0
   27.6864   81.4345   82.0002 N   0  0  0  0  0  0
   26.3399   82.0188   82.3219 C   0  0  1  0  0  0
   26.2324   80.9825   83.4809 C   0  0  2  0  0  0
   27.7336   80.6949   83.1909 C   0  0  0  0  0  0
   28.6106   80.0332   83.7448 O   0  0  0  0  0  0
   25.4095   79.6935   83.1798 C   0  0  0  0  0  0
   23.9630   79.6223   83.7199 C   0  0  2  0  0  0
   23.8837   79.5779   85.2636 C   0  0  0  0  0  0
   22.4444   79.3255   85.7547 C   0  0  0  0  0  0
   21.8105   78.1013   85.0660 C   0  0  0  0  0  0
   21.8415   78.2793   83.6041 N   0  0  0  0  0  0
   23.2275   78.3927   83.1210 C   0  0  0  0  0  0
   20.7184   77.9489   82.7725 C   0  0  0  0  0  0
   19.5689   77.6939   83.2166 N   0  0  0  0  0  0
   20.9501   77.9508   81.3809 N   0  0  0  0  0  0
   26.3345   83.5047   82.7860 C   0  0  0  0  0  0
   25.3273   84.1779   82.8078 O   0  0  0  0  0  0
   27.5882   83.9519   83.0962 O   0  0  0  0  0  0
   25.6194   81.8695   81.5161 H   0  0  0  0  0  0
   26.0458   81.3657   84.4849 H   0  0  0  0  0  0
   28.1166   71.9666   83.5654 H   0  0  0  0  0  0
   27.8948   74.4292   83.4827 H   0  0  0  0  0  0
   29.7932   75.8060   82.7056 H   0  0  0  0  0  0
   32.1146   72.2331   82.0853 H   0  0  0  0  0  0
   30.2262   70.8752   82.8894 H   0  0  0  0  0  0
   32.3550   75.8267   82.4571 H   0  0  0  0  0  0
   33.1663   74.3899   81.9130 H   0  0  0  0  0  0
   31.8497   74.4965   79.7366 H   0  0  0  0  0  0
   31.1066   75.9748   80.2945 H   0  0  0  0  0  0
   33.4317   77.0334   80.4262 H   0  0  0  0  0  0
   34.1048   75.5610   79.7964 H   0  0  0  0  0  0
   33.8936   77.0625   77.9058 H   0  0  0  0  0  0
   32.6723   75.8367   77.7152 H   0  0  0  0  0  0
   30.9672   77.3069   78.0422 H   0  0  0  0  0  0
   28.7765   79.5740   78.6449 H   0  0  0  0  0  0
   29.5035   78.0235   78.9237 H   0  0  0  0  0  0
   30.3825   78.9678   81.1545 H   0  0  0  0  0  0
   28.6329   78.9828   81.1327 H   0  0  0  0  0  0
   31.6836   81.0657   80.7746 H   0  0  0  0  0  0
   30.8466   82.5822   80.4608 H   0  0  0  0  0  0
   31.7780   81.5886   78.2702 H   0  0  0  0  0  0
   30.0324   81.5674   78.2644 H   0  0  0  0  0  0
   25.3854   79.5244   82.1015 H   0  0  0  0  0  0
   25.9382   78.8237   83.5799 H   0  0  0  0  0  0
   23.3930   80.5038   83.4214 H   0  0  0  0  0  0
   24.5071   78.7545   85.6179 H   0  0  0  0  0  0
   24.3128   80.4739   85.7125 H   0  0  0  0  0  0
   22.4427   79.1761   86.8359 H   0  0  0  0  0  0
   21.8100   80.1936   85.5749 H   0  0  0  0  0  0
   22.3661   77.1974   85.3141 H   0  0  0  0  0  0
   20.8002   77.9614   85.4483 H   0  0  0  0  0  0
   23.2543   78.4939   82.0394 H   0  0  0  0  0  0
   23.7762   77.4757   83.3297 H   0  0  0  0  0  0
   19.5429   77.7421   84.2227 H   0  0  0  0  0  0
   20.2023   77.8022   80.7188 H   0  0  0  0  0  0
   21.8444   78.1917   80.9714 H   0  0  0  0  0  0
   27.6510   84.9146   83.2163 H   0  0  0  0  0  0
  1  6  1  0  0  0
  1  2  2  0  0  0
  1 42  1  0  0  0
  2  3  1  0  0  0
  2 43  1  0  0  0
  3  4  2  0  0  0
  3 44  1  0  0  0
  4  5  1  0  0  0
  4  7  1  0  0  0
  5  6  2  0  0  0
  5 45  1  0  0  0
  6 46  1  0  0  0
  7  8  1  0  0  0
  7 47  1  0  0  0
  7 48  1  0  0  0
  8  9  1  0  0  0
  8 49  1  0  0  0
  8 50  1  0  0  0
  9 10  1  0  0  0
  9 51  1  0  0  0
  9 52  1  0  0  0
 10 11  1  0  0  0
 10 53  1  0  0  0
 10 54  1  0  0  0
 11 12  1  0  0  0
 11 55  1  0  0  0
 12 13  2  0  0  0
 12 14  1  0  0  0
 14 19  1  0  0  0
 14 15  1  0  0  0
 15 16  1  0  0  0
 15 56  1  0  0  0
 15 57  1  0  0  0
 16 17  1  0  0  0
 16 58  1  0  0  0
 16 59  1  0  0  0
 17 18  1  0  0  0
 17 20  1  0  0  0
 18 19  1  0  0  0
 18 60  1  0  0  0
 18 61  1  0  0  0
 19 62  1  0  0  0
 19 63  1  0  0  0
 20 21  2  0  0  0
 20 22  1  0  0  0
 22 25  1  0  0  0
 22 23  1  0  0  0
 23 40  1  0  0  0
 23 24  1  0  0  0
 23 37  1  0  0  0
 24 41  1  0  0  0
 24 25  1  0  0  0
 24 27  1  0  0  0
 25 26  2  0  0  0
 27 28  1  0  0  0
 27 64  1  0  0  0
 27 65  1  0  0  0
 28 33  1  0  0  0
 28 29  1  0  0  0
 28 66  1  0  0  0
 29 30  1  0  0  0
 29 67  1  0  0  0
 29 68  1  0  0  0
 30 31  1  0  0  0
 30 69  1  0  0  0
 30 70  1  0  0  0
 31 32  1  0  0  0
 31 71  1  0  0  0
 31 72  1  0  0  0
 32 33  1  0  0  0
 32 34  1  0  0  0
 33 73  1  0  0  0
 33 74  1  0  0  0
 34 35  2  3  0  0
 34 36  1  0  0  0
 35 75  1  0  0  0
 36 76  1  0  0  0
 36 77  1  0  0  0
 37 38  2  0  0  0
 37 39  1  0  0  0
 39 78  1  0  0  0
M  END
> <s_m_entry_id>
40719

> <s_m_entry_name>
ligand_docking-pose.23

> <s_m_Source_Path>
/home/csk/Desktop/cluster/DUD-E-result/tryb1

> <s_m_Source_File>
ligand_docking-pose.sdf

> <i_m_Source_File_Index>
23

> <i_lp_mmshare_version>
53161

> <i_f3d_flags>
0

> <r_lp_tautomer_probability>
1

> <s_lp_Force_Field>
OPLS_2005

> <r_lp_Energy>
89.702116

> <b_lp_Chiralities_Consistent>
1

> <s_lp_Variant>
180803-2

> <s_i_glide_gridfile>
glide-grid_2zec

> <i_i_glide_lignum>
87

> <i_i_glide_rotatable_bonds>
14

> <r_i_docking_score>
-7.12999774465035

> <r_i_glide_ligand_efficiency>
-0.182820454991035

> <r_i_glide_ligand_efficiency_sa>
-0.619982818225538

> <r_i_glide_ligand_efficiency_ln>
-1.52887391347504

> <r_i_glide_gscore>
-7.12999774465035

> <r_i_glide_lipo>
-3.11121954487889

> <r_i_glide_hbond>
-0.252984368834099

> <r_i_glide_metal>
0

> <r_i_glide_rewards>
-0.409744914123229

> <r_i_glide_evdw>
-49.3419342041016

> <r_i_glide_ecoul>
-10.9025630950928

> <r_i_glide_erotb>
0.775448521818956

> <r_i_glide_esite>
-0.0290162641640968

> <r_i_glide_emodel>
-80.3283917186383

> <r_i_glide_energy>
-60.2444972991943

> <r_i_glide_einternal>
8.63022899627686

> <i_i_glide_confnum>
24

> <i_i_glide_posenum>
357

> <r_i_glide_eff_state_penalty>
0

> <s_user_duplicate_titles>
180803

> <s_m_subgroup_title>
dock_pv

> <s_m_subgroupid>
dock_pv1

> <b_m_subgroup_collapsed>
0

$$$$
120981
                    3D
 Schrodinger Suite 2021-1.
 77 80  0  0  1  0            999 V2000
   24.4937   81.0777   89.7012 C   0  0  0  0  0  0
   24.8434   79.9962   88.8494 O   0  0  0  0  0  0
   24.0572   78.8995   88.7741 C   0  0  0  0  0  0
   22.9957   78.7520   89.3920 O   0  0  0  0  0  0
   24.6177   77.8322   87.7946 C   0  0  2  0  0  0
   23.8935   77.9244   86.4356 C   0  0  0  0  0  0
   24.6485   77.9440   85.2598 C   0  0  0  0  0  0
   24.0224   77.9615   84.0177 C   0  0  0  0  0  0
   22.6300   77.9498   83.9168 C   0  0  0  0  0  0
   21.8688   77.9549   85.0933 C   0  0  0  0  0  0
   22.4938   77.9284   86.3378 C   0  0  0  0  0  0
   22.0865   77.8852   82.6234 N   0  0  0  0  0  0
   20.7859   77.6119   82.1309 C   0  0  0  0  0  0
   19.7507   77.4278   82.8153 N   0  0  0  0  0  0
   20.7735   77.5514   80.7323 N   0  0  0  0  0  0
   24.5722   76.3714   88.3317 C   0  0  0  0  0  0
   23.5136   75.9667   88.8157 O   0  0  0  0  0  0
   25.6658   75.5613   88.2906 N   0  0  0  0  0  0
   26.9381   75.8563   87.6056 C   0  0  0  0  0  0
   28.0566   75.9770   88.6730 C   0  0  0  0  0  0
   28.0666   74.7370   89.4873 N   0  0  0  0  0  0
   26.7819   74.4361   90.1501 C   0  0  0  0  0  0
   25.6864   74.3034   89.0645 C   0  0  0  0  0  0
   29.0908   73.8379   89.5346 C   0  0  0  0  0  0
   28.9948   72.7511   90.1125 O   0  0  0  0  0  0
   30.2409   74.2072   88.9402 N   0  0  0  0  0  0
   31.2698   73.2782   88.4662 C   0  0  0  0  0  0
   31.0013   72.8096   87.0181 C   0  0  0  0  0  0
   31.1906   73.9209   85.9414 C   0  0  0  0  0  0
   30.1311   73.8543   84.8343 C   0  0  0  0  0  0
   30.0172   72.7230   84.0190 C   0  0  0  0  0  0
   29.0304   72.6557   83.0418 C   0  0  0  0  0  0
   28.1499   73.7219   82.8742 C   0  0  0  0  0  0
   28.2450   74.8511   83.6868 C   0  0  0  0  0  0
   29.2365   74.9179   84.6629 C   0  0  0  0  0  0
   32.6285   74.0297   85.4082 C   0  0  0  0  0  0
   33.2915   75.2637   85.4513 C   0  0  0  0  0  0
   34.5962   75.3802   84.9771 C   0  0  0  0  0  0
   35.2479   74.2636   84.4551 C   0  0  0  0  0  0
   34.6024   73.0289   84.4134 C   0  0  0  0  0  0
   33.2987   72.9138   84.8877 C   0  0  0  0  0  0
   25.2050   81.8954   89.5869 H   0  0  0  0  0  0
   23.4991   81.4585   89.4671 H   0  0  0  0  0  0
   24.5010   80.7678   90.7468 H   0  0  0  0  0  0
   25.6534   78.1232   87.6469 H   0  0  0  0  0  0
   25.7290   77.9341   85.3007 H   0  0  0  0  0  0
   24.6292   77.9532   83.1245 H   0  0  0  0  0  0
   20.7914   77.9673   85.0746 H   0  0  0  0  0  0
   21.8761   77.8963   87.2231 H   0  0  0  0  0  0
   22.7671   78.0698   81.8976 H   0  0  0  0  0  0
   19.9522   77.4779   83.7972 H   0  0  0  0  0  0
   19.8936   77.5655   80.2345 H   0  0  0  0  0  0
   21.5368   77.9504   80.2010 H   0  0  0  0  0  0
   27.1612   75.0101   86.9556 H   0  0  0  0  0  0
   26.9054   76.7169   86.9427 H   0  0  0  0  0  0
   27.8443   76.8178   89.3363 H   0  0  0  0  0  0
   29.0102   76.1809   88.1848 H   0  0  0  0  0  0
   26.5427   75.2635   90.8175 H   0  0  0  0  0  0
   26.8219   73.5380   90.7682 H   0  0  0  0  0  0
   24.7220   74.0577   89.5161 H   0  0  0  0  0  0
   25.9280   73.4754   88.3988 H   0  0  0  0  0  0
   30.3597   75.1759   88.6814 H   0  0  0  0  0  0
   32.2255   73.8021   88.5015 H   0  0  0  0  0  0
   31.3831   72.4177   89.1303 H   0  0  0  0  0  0
   31.6343   71.9523   86.8001 H   0  0  0  0  0  0
   29.9839   72.4099   86.9766 H   0  0  0  0  0  0
   30.9948   74.8609   86.4573 H   0  0  0  0  0  0
   30.6921   71.8898   84.1365 H   0  0  0  0  0  0
   28.9495   71.7781   82.4163 H   0  0  0  0  0  0
   27.3854   73.6720   82.1135 H   0  0  0  0  0  0
   27.5516   75.6702   83.5562 H   0  0  0  0  0  0
   29.3023   75.7990   85.2850 H   0  0  0  0  0  0
   32.7962   76.1398   85.8495 H   0  0  0  0  0  0
   35.1019   76.3367   85.0071 H   0  0  0  0  0  0
   36.2538   74.3576   84.0717 H   0  0  0  0  0  0
   35.1084   72.1689   84.0024 H   0  0  0  0  0  0
   32.8143   71.9521   84.8351 H   0  0  0  0  0  0
  1  2  1  0  0  0
  1 42  1  0  0  0
  1 43  1  0  0  0
  1 44  1  0  0  0
  2  3  1  0  0  0
  3  4  2  0  0  0
  3  5  1  0  0  0
  5  6  1  0  0  0
  5 16  1  0  0  0
  5 45  1  0  0  0
  6 11  1  0  0  0
  6  7  2  0  0  0
  7  8  1  0  0  0
  7 46  1  0  0  0
  8  9  2  0  0  0
  8 47  1  0  0  0
  9 10  1  0  0  0
  9 12  1  0  0  0
 10 11  2  0  0  0
 10 48  1  0  0  0
 11 49  1  0  0  0
 12 13  1  0  0  0
 12 50  1  0  0  0
 13 14  2  3  0  0
 13 15  1  0  0  0
 14 51  1  0  0  0
 15 52  1  0  0  0
 15 53  1  0  0  0
 16 17  2  0  0  0
 16 18  1  0  0  0
 18 23  1  0  0  0
 18 19  1  0  0  0
 19 20  1  0  0  0
 19 54  1  0  0  0
 19 55  1  0  0  0
 20 21  1  0  0  0
 20 56  1  0  0  0
 20 57  1  0  0  0
 21 22  1  0  0  0
 21 24  1  0  0  0
 22 23  1  0  0  0
 22 58  1  0  0  0
 22 59  1  0  0  0
 23 60  1  0  0  0
 23 61  1  0  0  0
 24 25  2  0  0  0
 24 26  1  0  0  0
 26 27  1  0  0  0
 26 62  1  0  0  0
 27 28  1  0  0  0
 27 63  1  0  0  0
 27 64  1  0  0  0
 28 29  1  0  0  0
 28 65  1  0  0  0
 28 66  1  0  0  0
 29 30  1  0  0  0
 29 36  1  0  0  0
 29 67  1  0  0  0
 30 35  1  0  0  0
 30 31  2  0  0  0
 31 32  1  0  0  0
 31 68  1  0  0  0
 32 33  2  0  0  0
 32 69  1  0  0  0
 33 34  1  0  0  0
 33 70  1  0  0  0
 34 35  2  0  0  0
 34 71  1  0  0  0
 35 72  1  0  0  0
 36 41  1  0  0  0
 36 37  2  0  0  0
 37 38  1  0  0  0
 37 73  1  0  0  0
 38 39  2  0  0  0
 38 74  1  0  0  0
 39 40  1  0  0  0
 39 75  1  0  0  0
 40 41  2  0  0  0
 40 76  1  0  0  0
 41 77  1  0  0  0
M  END
> <s_m_entry_id>
40723

> <s_m_entry_name>
ligand_docking-pose.27

> <s_m_Source_Path>
/home/csk/Desktop/cluster/DUD-E-result/tryb1

> <s_m_Source_File>
ligand_docking-pose.sdf

> <i_m_Source_File_Index>
27

> <i_lp_mmshare_version>
53161

> <i_f3d_flags>
0

> <r_lp_tautomer_probability>
1

> <s_lp_Force_Field>
OPLS_2005

> <r_lp_Energy>
62.588362

> <b_lp_Chiralities_Consistent>
1

> <s_lp_Variant>
120981-2

> <s_i_glide_gridfile>
glide-grid_2zec

> <i_i_glide_lignum>
297

> <i_i_glide_rotatable_bonds>
14

> <r_i_docking_score>
-7.02677052931941

> <r_i_glide_ligand_efficiency>
-0.171384647056571

> <r_i_glide_ligand_efficiency_sa>
-0.590971493985839

> <r_i_glide_ligand_efficiency_ln>
-1.49075275181535

> <r_i_glide_gscore>
-7.02677052931941

> <r_i_glide_lipo>
-2.84900493197798

> <r_i_glide_hbond>
-0.74764638383456

> <r_i_glide_metal>
0

> <r_i_glide_rewards>
-0.297518498307777

> <r_i_glide_evdw>
-55.9822845458984

> <r_i_glide_ecoul>
-7.21538352966309

> <r_i_glide_erotb>
0.795388409692369

> <r_i_glide_esite>
-0.0465673681470787

> <r_i_glide_emodel>
-87.2227818664473

> <r_i_glide_energy>
-63.1976680755615

> <r_i_glide_einternal>
7.74637222290039

> <i_i_glide_confnum>
1

> <i_i_glide_posenum>
159

> <r_i_glide_eff_state_penalty>
0

> <s_user_duplicate_titles>
120981

> <s_m_subgroup_title>
dock_pv

> <s_m_subgroupid>
dock_pv1

> <b_m_subgroup_collapsed>
0

$$$$
113811
                    3D
 Schrodinger Suite 2021-1.
 73 77  0  0  1  0            999 V2000
   31.8593   73.0833   86.1235 C   0  0  0  0  0  0
   32.8655   72.8111   85.2001 C   0  0  0  0  0  0
   34.1030   72.3524   85.6417 C   0  0  0  0  0  0
   34.3413   72.1651   87.0020 C   0  0  0  0  0  0
   33.3314   72.4322   87.9232 C   0  0  0  0  0  0
   32.0771   72.8966   87.4963 C   0  0  0  0  0  0
   30.9884   73.1999   88.4917 C   0  0  0  0  0  0
   31.1882   73.1524   89.7979 N   0  0  0  0  0  0
   30.0205   73.4832   90.2785 C   0  0  0  0  0  0
   29.0995   73.7485   89.3182 O   0  0  0  0  0  0
   29.7720   73.5530   88.1155 N   0  0  0  0  0  0
   29.6433   73.6454   91.7412 C   0  0  0  0  0  0
   28.1354   73.4816   92.0387 C   0  0  0  0  0  0
   27.2322   74.6305   91.4930 C   0  0  0  0  0  0
   26.0044   74.2002   90.6589 C   0  0  0  0  0  0
   25.7500   72.9985   90.5590 O   0  0  0  0  0  0
   25.2380   75.1519   90.0524 N   0  0  0  0  0  0
   24.0992   74.7677   89.1993 C   0  0  0  0  0  0
   24.2884   75.3842   87.8092 C   0  0  0  0  0  0
   24.4577   76.8324   87.9658 N   0  0  0  0  0  0
   25.5551   77.2873   88.8333 C   0  0  0  0  0  0
   25.4294   76.6092   90.2218 C   0  0  0  0  0  0
   23.5266   77.6823   87.4697 C   0  0  0  0  0  0
   22.8176   78.3693   88.2069 O   0  0  0  0  0  0
   23.4190   77.7207   86.1189 N   0  0  0  0  0  0
   22.4722   78.4584   85.2123 C   0  0  1  0  0  0
   23.3394   77.9911   84.0083 C   0  0  2  0  0  0
   24.1491   77.1756   85.0490 C   0  0  0  0  0  0
   25.0671   76.3607   84.9910 O   0  0  0  0  0  0
   24.1909   79.0597   83.2550 C   0  0  0  0  0  0
   24.8226   80.2507   84.0389 C   0  0  0  0  0  0
   26.0209   79.8907   84.9472 C   0  0  0  0  0  0
   26.5326   81.1269   85.7200 C   0  0  0  0  0  0
   26.8896   82.2253   84.8179 N   0  0  1  0  0  0
   25.8502   82.5806   83.8473 C   0  0  0  0  0  0
   25.3492   81.3408   83.0816 C   0  0  0  0  0  0
   21.0280   77.8992   85.1591 C   0  0  0  0  0  0
   20.5521   77.1530   85.9890 O   0  0  0  0  0  0
   20.3874   78.3520   84.0441 O   0  0  0  0  0  0
   35.3498   72.0226   84.4962 Cl  0  0  0  0  0  0
   22.4681   79.5277   85.4232 H   0  0  0  0  0  0
   22.8517   77.3455   83.2712 H   0  0  0  0  0  0
   30.9049   73.4408   85.7602 H   0  0  0  0  0  0
   32.6841   72.9557   84.1445 H   0  0  0  0  0  0
   35.3058   71.8186   87.3413 H   0  0  0  0  0  0
   33.5285   72.2786   88.9755 H   0  0  0  0  0  0
   30.1983   72.9183   92.3355 H   0  0  0  0  0  0
   29.9718   74.6218   92.0978 H   0  0  0  0  0  0
   27.8349   72.4988   91.6724 H   0  0  0  0  0  0
   27.9943   73.4211   93.1196 H   0  0  0  0  0  0
   26.8919   75.2401   92.3313 H   0  0  0  0  0  0
   27.8322   75.2920   90.8680 H   0  0  0  0  0  0
   23.9918   73.6948   89.0974 H   0  0  0  0  0  0
   23.1683   75.1435   89.6171 H   0  0  0  0  0  0
   23.4203   75.1520   87.1923 H   0  0  0  0  0  0
   25.1803   74.9777   87.3313 H   0  0  0  0  0  0
   25.5511   78.3747   88.9390 H   0  0  0  0  0  0
   26.4934   76.9901   88.3642 H   0  0  0  0  0  0
   24.5499   77.0048   90.7248 H   0  0  0  0  0  0
   26.2905   76.8672   90.8378 H   0  0  0  0  0  0
   24.9726   78.5510   82.6852 H   0  0  0  0  0  0
   23.5371   79.4839   82.4912 H   0  0  0  0  0  0
   24.0592   80.7201   84.6583 H   0  0  0  0  0  0
   25.7490   79.1326   85.6739 H   0  0  0  0  0  0
   26.8298   79.4282   84.3784 H   0  0  0  0  0  0
   25.7682   81.4798   86.4129 H   0  0  0  0  0  0
   27.4091   80.8625   86.3138 H   0  0  0  0  0  0
   27.1593   83.0433   85.3475 H   0  0  0  0  0  0
   25.0252   83.0609   84.3759 H   0  0  0  0  0  0
   26.2551   83.3159   83.1506 H   0  0  0  0  0  0
   26.1184   80.9588   82.4077 H   0  0  0  0  0  0
   24.5500   81.6529   82.4146 H   0  0  0  0  0  0
   20.9522   78.8935   83.4892 H   0  0  0  0  0  0
  1  6  1  0  0  0
  1  2  2  0  0  0
  1 43  1  0  0  0
  2  3  1  0  0  0
  2 44  1  0  0  0
  3  4  2  0  0  0
  3 40  1  0  0  0
  4  5  1  0  0  0
  4 45  1  0  0  0
  5  6  2  0  0  0
  5 46  1  0  0  0
  6  7  1  0  0  0
  7 11  2  0  0  0
  7  8  1  0  0  0
  8  9  2  0  0  0
  9 10  1  0  0  0
  9 12  1  0  0  0
 10 11  1  0  0  0
 12 13  1  0  0  0
 12 47  1  0  0  0
 12 48  1  0  0  0
 13 14  1  0  0  0
 13 49  1  0  0  0
 13 50  1  0  0  0
 14 15  1  0  0  0
 14 51  1  0  0  0
 14 52  1  0  0  0
 15 16  2  0  0  0
 15 17  1  0  0  0
 17 22  1  0  0  0
 17 18  1  0  0  0
 18 19  1  0  0  0
 18 53  1  0  0  0
 18 54  1  0  0  0
 19 20  1  0  0  0
 19 55  1  0  0  0
 19 56  1  0  0  0
 20 21  1  0  0  0
 20 23  1  0  0  0
 21 22  1  0  0  0
 21 57  1  0  0  0
 21 58  1  0  0  0
 22 59  1  0  0  0
 22 60  1  0  0  0
 23 24  2  0  0  0
 23 25  1  0  0  0
 25 28  1  0  0  0
 25 26  1  0  0  0
 26 41  1  0  0  0
 26 27  1  0  0  0
 26 37  1  0  0  0
 27 42  1  0  0  0
 27 28  1  0  0  0
 27 30  1  0  0  0
 28 29  2  0  0  0
 30 31  1  0  0  0
 30 61  1  0  0  0
 30 62  1  0  0  0
 31 36  1  0  0  0
 31 32  1  0  0  0
 31 63  1  0  0  0
 32 33  1  0  0  0
 32 64  1  0  0  0
 32 65  1  0  0  0
 33 34  1  0  0  0
 33 66  1  0  0  0
 33 67  1  0  0  0
 34 35  1  0  0  0
 34 68  1  0  0  0
 35 36  1  0  0  0
 35 69  1  0  0  0
 35 70  1  0  0  0
 36 71  1  0  0  0
 36 72  1  0  0  0
 37 38  2  0  0  0
 37 39  1  0  0  0
 39 73  1  0  0  0
M  END
> <s_m_entry_id>
40725

> <s_m_entry_name>
ligand_docking-pose.29

> <s_m_Source_Path>
/home/csk/Desktop/cluster/DUD-E-result/tryb1

> <s_m_Source_File>
ligand_docking-pose.sdf

> <i_m_Source_File_Index>
29

> <i_lp_mmshare_version>
53161

> <i_f3d_flags>
0

> <r_lp_tautomer_probability>
1

> <s_lp_Force_Field>
OPLS_2005

> <r_lp_Energy>
82.338518

> <b_lp_Chiralities_Consistent>
1

> <s_lp_Variant>
113811-1

> <s_i_glide_gridfile>
glide-grid_2zec

> <i_i_glide_lignum>
57

> <i_i_glide_rotatable_bonds>
12

> <r_i_docking_score>
-7.02314045952974

> <r_i_glide_ligand_efficiency>
-0.175578511488244

> <r_i_glide_ligand_efficiency_sa>
-0.600470062058035

> <r_i_glide_ligand_efficiency_ln>
-1.49782917822035

> <r_i_glide_gscore>
-7.02314045952974

> <r_i_glide_lipo>
-2.27860644027236

> <r_i_glide_hbond>
-0.421377575215992

> <r_i_glide_metal>
0

> <r_i_glide_rewards>
-1.46896164984252

> <r_i_glide_evdw>
-52.3769340515137

> <r_i_glide_ecoul>
-5.60879278182983

> <r_i_glide_erotb>
0.605970825651285

> <r_i_glide_esite>
0

> <r_i_glide_emodel>
-77.4012884631234

> <r_i_glide_energy>
-57.9857268333435

> <r_i_glide_einternal>
11.0543050765991

> <i_i_glide_confnum>
40

> <i_i_glide_posenum>
317

> <r_i_glide_eff_state_penalty>
0

> <s_user_duplicate_titles>
113811

> <s_m_subgroup_title>
dock_pv

> <s_m_subgroupid>
dock_pv1

> <b_m_subgroup_collapsed>
0

$$$$
113806
                    3D
 Schrodinger Suite 2021-1.
 73 77  0  0  1  0            999 V2000
   30.9516   72.9322   82.2611 C   0  0  0  0  0  0
   31.7740   73.7698   83.0140 C   0  0  0  0  0  0
   31.3153   74.2740   84.2302 C   0  0  0  0  0  0
   30.0434   73.9294   84.6920 C   0  0  0  0  0  0
   29.2208   73.0996   83.9278 C   0  0  0  0  0  0
   29.6760   72.5968   82.7111 C   0  0  0  0  0  0
   29.5886   74.4168   85.8964 O   0  0  0  0  0  0
   29.8719   73.7567   87.0766 C   0  0  0  0  0  0
   30.8452   72.7546   87.1954 C   0  0  0  0  0  0
   31.0606   72.1239   88.4170 C   0  0  0  0  0  0
   30.3117   72.4817   89.5369 C   0  0  0  0  0  0
   29.3345   73.4769   89.4422 C   0  0  0  0  0  0
   29.1394   74.1178   88.2103 C   0  0  0  0  0  0
   28.5148   73.8604   90.6765 C   0  0  0  0  0  0
   26.9925   73.6984   90.4634 C   0  0  0  0  0  0
   26.5506   72.5481   90.4161 O   0  0  0  0  0  0
   26.1796   74.7795   90.3097 N   0  0  0  0  0  0
   26.5722   76.1889   90.4785 C   0  0  0  0  0  0
   26.4519   76.9028   89.1136 C   0  0  0  0  0  0
   25.1045   76.6659   88.5637 N   0  0  0  0  0  0
   24.6084   75.2821   88.4923 C   0  0  0  0  0  0
   24.7792   74.6163   89.8819 C   0  0  0  0  0  0
   24.2619   77.7067   88.4173 C   0  0  0  0  0  0
   23.3554   77.9400   89.2175 O   0  0  0  0  0  0
   24.5132   78.5068   87.3607 N   0  0  0  0  0  0
   25.2122   78.2895   86.0480 C   0  0  1  0  0  0
   24.6723   79.6729   85.5907 C   0  0  2  0  0  0
   24.0100   79.7547   86.9952 C   0  0  0  0  0  0
   23.3498   80.5836   87.6156 O   0  0  0  0  0  0
   23.6771   79.6968   84.3951 C   0  0  0  0  0  0
   22.6422   78.5484   84.1853 C   0  0  0  0  0  0
   21.4284   78.5840   85.1381 C   0  0  0  0  0  0
   20.3819   77.4939   84.8270 C   0  0  0  0  0  0
   19.9450   77.5117   83.4299 N   0  0  1  0  0  0
   21.0369   77.5011   82.4525 C   0  0  0  0  0  0
   22.1063   78.5726   82.7406 C   0  0  0  0  0  0
   26.7564   78.2304   86.0854 C   0  0  0  0  0  0
   27.3816   77.3944   85.4729 O   0  0  0  0  0  0
   27.2974   79.1913   86.8922 O   0  0  0  0  0  0
   24.8090   77.4270   85.5189 H   0  0  0  0  0  0
   25.4101   80.4648   85.4404 H   0  0  0  0  0  0
   31.3017   72.5440   81.3151 H   0  0  0  0  0  0
   32.7586   74.0298   82.6536 H   0  0  0  0  0  0
   31.9431   74.9247   84.8208 H   0  0  0  0  0  0
   28.2323   72.8484   84.2789 H   0  0  0  0  0  0
   29.0438   71.9565   82.1126 H   0  0  0  0  0  0
   31.4345   72.4507   86.3438 H   0  0  0  0  0  0
   31.8049   71.3476   88.4899 H   0  0  0  0  0  0
   30.4914   71.9730   90.4732 H   0  0  0  0  0  0
   28.3944   74.8871   88.1141 H   0  0  0  0  0  0
   28.7872   73.2205   91.5168 H   0  0  0  0  0  0
   28.8232   74.8538   90.9848 H   0  0  0  0  0  0
   25.8599   76.6334   91.1762 H   0  0  0  0  0  0
   27.5421   76.3531   90.9402 H   0  0  0  0  0  0
   27.1868   76.5160   88.4115 H   0  0  0  0  0  0
   26.6445   77.9677   89.2603 H   0  0  0  0  0  0
   25.2058   74.7433   87.7565 H   0  0  0  0  0  0
   23.5593   75.2427   88.1901 H   0  0  0  0  0  0
   24.4714   73.5717   89.8585 H   0  0  0  0  0  0
   24.1499   75.1147   90.6172 H   0  0  0  0  0  0
   23.1487   80.6527   84.3952 H   0  0  0  0  0  0
   24.3007   79.7386   83.4993 H   0  0  0  0  0  0
   23.1144   77.5737   84.3031 H   0  0  0  0  0  0
   21.7456   78.4961   86.1757 H   0  0  0  0  0  0
   20.9391   79.5529   85.1001 H   0  0  0  0  0  0
   20.7802   76.5062   85.0533 H   0  0  0  0  0  0
   19.5067   77.6385   85.4607 H   0  0  0  0  0  0
   19.3389   76.7214   83.2524 H   0  0  0  0  0  0
   21.4894   76.5108   82.4274 H   0  0  0  0  0  0
   20.6081   77.6740   81.4634 H   0  0  0  0  0  0
   21.7113   79.5520   82.4912 H   0  0  0  0  0  0
   22.9330   78.4536   82.0407 H   0  0  0  0  0  0
   26.6445   79.7770   87.2787 H   0  0  0  0  0  0
  1  6  1  0  0  0
  1  2  2  0  0  0
  1 42  1  0  0  0
  2  3  1  0  0  0
  2 43  1  0  0  0
  3  4  2  0  0  0
  3 44  1  0  0  0
  4  5  1  0  0  0
  4  7  1  0  0  0
  5  6  2  0  0  0
  5 45  1  0  0  0
  6 46  1  0  0  0
  7  8  1  0  0  0
  8 13  1  0  0  0
  8  9  2  0  0  0
  9 10  1  0  0  0
  9 47  1  0  0  0
 10 11  2  0  0  0
 10 48  1  0  0  0
 11 12  1  0  0  0
 11 49  1  0  0  0
 12 13  2  0  0  0
 12 14  1  0  0  0
 13 50  1  0  0  0
 14 15  1  0  0  0
 14 51  1  0  0  0
 14 52  1  0  0  0
 15 16  2  0  0  0
 15 17  1  0  0  0
 17 22  1  0  0  0
 17 18  1  0  0  0
 18 19  1  0  0  0
 18 53  1  0  0  0
 18 54  1  0  0  0
 19 20  1  0  0  0
 19 55  1  0  0  0
 19 56  1  0  0  0
 20 21  1  0  0  0
 20 23  1  0  0  0
 21 22  1  0  0  0
 21 57  1  0  0  0
 21 58  1  0  0  0
 22 59  1  0  0  0
 22 60  1  0  0  0
 23 24  2  0  0  0
 23 25  1  0  0  0
 25 28  1  0  0  0
 25 26  1  0  0  0
 26 40  1  0  0  0
 26 27  1  0  0  0
 26 37  1  0  0  0
 27 41  1  0  0  0
 27 28  1  0  0  0
 27 30  1  0  0  0
 28 29  2  0  0  0
 30 31  1  0  0  0
 30 61  1  0  0  0
 30 62  1  0  0  0
 31 36  1  0  0  0
 31 32  1  0  0  0
 31 63  1  0  0  0
 32 33  1  0  0  0
 32 64  1  0  0  0
 32 65  1  0  0  0
 33 34  1  0  0  0
 33 66  1  0  0  0
 33 67  1  0  0  0
 34 35  1  0  0  0
 34 68  1  0  0  0
 35 36  1  0  0  0
 35 69  1  0  0  0
 35 70  1  0  0  0
 36 71  1  0  0  0
 36 72  1  0  0  0
 37 38  2  0  0  0
 37 39  1  0  0  0
 39 73  1  0  0  0
M  END
> <s_m_entry_id>
40726

> <s_m_entry_name>
ligand_docking-pose.30

> <s_m_Source_Path>
/home/csk/Desktop/cluster/DUD-E-result/tryb1

> <s_m_Source_File>
ligand_docking-pose.sdf

> <i_m_Source_File_Index>
30

> <i_lp_mmshare_version>
53161

> <i_f3d_flags>
0

> <r_lp_tautomer_probability>
1

> <s_lp_Force_Field>
OPLS_2005

> <r_lp_Energy>
85.552875

> <b_lp_Chiralities_Consistent>
1

> <s_lp_Variant>
113806-1

> <s_i_glide_gridfile>
glide-grid_2zec

> <i_i_glide_lignum>
161

> <i_i_glide_rotatable_bonds>
11

> <r_i_docking_score>
-6.99134423741773

> <r_i_glide_ligand_efficiency>
-0.179265236856865

> <r_i_glide_ligand_efficiency_sa>
-0.607926321821253

> <r_i_glide_ligand_efficiency_ln>
-1.49914266561051

> <r_i_glide_gscore>
-6.99134423741773

> <r_i_glide_lipo>
-3.60467302242138

> <r_i_glide_hbond>
-0.32

> <r_i_glide_metal>
0

> <r_i_glide_rewards>
-0.471400889939471

> <r_i_glide_evdw>
-46.0264701843262

> <r_i_glide_ecoul>
-6.77402830123901

> <r_i_glide_erotb>
0.722157429345282

> <r_i_glide_esite>
0

> <r_i_glide_emodel>
-69.1942770153835

> <r_i_glide_energy>
-52.8004984855652

> <r_i_glide_einternal>
10.2883977890015

> <i_i_glide_confnum>
37

> <i_i_glide_posenum>
77

> <r_i_glide_eff_state_penalty>
0

> <s_user_duplicate_titles>
113806

> <s_m_subgroup_title>
dock_pv

> <s_m_subgroupid>
dock_pv1

> <b_m_subgroup_collapsed>
0

$$$$
180655
                    3D
 Schrodinger Suite 2021-1.
 43 44  0  0  1  0            999 V2000
   30.0611   72.5158   83.6111 C   0  0  0  0  0  0
   30.1510   73.1532   84.8462 C   0  0  0  0  0  0
   29.2300   74.1431   85.1828 C   0  0  0  0  0  0
   28.2057   74.4847   84.2846 C   0  0  0  0  0  0
   28.1492   73.8648   83.0338 C   0  0  0  0  0  0
   29.0677   72.8712   82.7029 C   0  0  0  0  0  0
   27.2198   75.4496   84.5697 N   0  0  0  0  0  0
   26.6913   75.7523   85.7781 C   0  0  0  0  0  0
   26.9704   75.1521   86.8176 O   0  0  0  0  0  0
   25.7904   76.7613   85.7654 N   0  0  0  0  0  0
   25.3068   77.7322   84.7210 C   0  0  1  0  0  0
   24.6434   78.5302   85.8853 C   0  0  2  0  0  0
   24.8613   77.2290   86.7025 C   0  0  0  0  0  0
   24.4168   76.7824   87.7598 O   0  0  0  0  0  0
   23.1413   78.9267   85.8111 C   0  0  0  0  0  0
   22.2641   78.2042   84.7673 C   0  0  0  0  0  0
   22.3081   78.8868   83.3827 C   0  0  0  0  0  0
   21.8803   78.0416   82.2695 N   0  0  0  0  0  0
   20.5498   77.5759   82.1266 C   0  0  0  0  0  0
   19.6809   77.5524   83.0322 N   0  0  0  0  0  0
   20.2757   77.1520   80.8177 N   0  0  0  0  0  0
   26.3983   78.5697   84.0208 C   0  0  0  0  0  0
   27.5049   78.7617   84.4767 O   0  0  0  0  0  0
   25.9419   79.0149   82.8174 O   0  0  0  0  0  0
   24.6408   77.2418   84.0094 H   0  0  0  0  0  0
   25.2163   79.3635   86.3006 H   0  0  0  0  0  0
   30.7718   71.7445   83.3496 H   0  0  0  0  0  0
   30.9307   72.8799   85.5418 H   0  0  0  0  0  0
   29.3158   74.6288   86.1436 H   0  0  0  0  0  0
   27.3782   74.1284   82.3236 H   0  0  0  0  0  0
   29.0110   72.3753   81.7434 H   0  0  0  0  0  0
   26.8327   75.9239   83.7655 H   0  0  0  0  0  0
   23.0745   80.0027   85.6378 H   0  0  0  0  0  0
   22.6885   78.7961   86.7969 H   0  0  0  0  0  0
   21.2365   78.2089   85.1315 H   0  0  0  0  0  0
   22.5385   77.1523   84.6984 H   0  0  0  0  0  0
   23.3319   79.1772   83.1580 H   0  0  0  0  0  0
   21.7501   79.8233   83.3983 H   0  0  0  0  0  0
   22.3901   78.2111   81.4092 H   0  0  0  0  0  0
   20.0595   77.9005   83.8984 H   0  0  0  0  0  0
   19.3108   77.0115   80.5554 H   0  0  0  0  0  0
   20.7993   77.5542   80.0546 H   0  0  0  0  0  0
   25.0525   78.7141   82.6230 H   0  0  0  0  0  0
  1  6  1  0  0  0
  1  2  2  0  0  0
  1 27  1  0  0  0
  2  3  1  0  0  0
  2 28  1  0  0  0
  3  4  2  0  0  0
  3 29  1  0  0  0
  4  5  1  0  0  0
  4  7  1  0  0  0
  5  6  2  0  0  0
  5 30  1  0  0  0
  6 31  1  0  0  0
  7  8  1  0  0  0
  7 32  1  0  0  0
  8  9  2  0  0  0
  8 10  1  0  0  0
 10 13  1  0  0  0
 10 11  1  0  0  0
 11 25  1  0  0  0
 11 12  1  0  0  0
 11 22  1  0  0  0
 12 26  1  0  0  0
 12 13  1  0  0  0
 12 15  1  0  0  0
 13 14  2  0  0  0
 15 16  1  0  0  0
 15 33  1  0  0  0
 15 34  1  0  0  0
 16 17  1  0  0  0
 16 35  1  0  0  0
 16 36  1  0  0  0
 17 18  1  0  0  0
 17 37  1  0  0  0
 17 38  1  0  0  0
 18 19  1  0  0  0
 18 39  1  0  0  0
 19 20  2  3  0  0
 19 21  1  0  0  0
 20 40  1  0  0  0
 21 41  1  0  0  0
 21 42  1  0  0  0
 22 23  2  0  0  0
 22 24  1  0  0  0
 24 43  1  0  0  0
M  END
> <s_m_entry_id>
40727

> <s_m_entry_name>
ligand_docking-pose.31

> <s_m_Source_Path>
/home/csk/Desktop/cluster/DUD-E-result/tryb1

> <s_m_Source_File>
ligand_docking-pose.sdf

> <i_m_Source_File_Index>
31

> <i_lp_mmshare_version>
53161

> <i_f3d_flags>
0

> <r_lp_tautomer_probability>
1

> <s_lp_Force_Field>
OPLS_2005

> <r_lp_Energy>
26.214956

> <b_lp_Chiralities_Consistent>
1

> <s_lp_Variant>
180655-2

> <s_i_glide_gridfile>
glide-grid_2zec

> <i_i_glide_lignum>
156

> <i_i_glide_rotatable_bonds>
10

> <r_i_docking_score>
-6.98388390874088

> <r_i_glide_ligand_efficiency>
-0.290995162864203

> <r_i_glide_ligand_efficiency_sa>
-0.839375296315669

> <r_i_glide_ligand_efficiency_ln>
-1.67156388891219

> <r_i_glide_gscore>
-6.98388390874088

> <r_i_glide_lipo>
-2.09434471959997

> <r_i_glide_hbond>
-1.13496950262244

> <r_i_glide_metal>
0

> <r_i_glide_rewards>
-1.22962485175078

> <r_i_glide_evdw>
-38.0927124023438

> <r_i_glide_ecoul>
-13.7855367660522

> <r_i_glide_erotb>
1.52646451636862

> <r_i_glide_esite>
-0.0789432161112736

> <r_i_glide_emodel>
-67.3078008488099

> <r_i_glide_energy>
-51.878249168396

> <r_i_glide_einternal>
13.9808025360107

> <i_i_glide_confnum>
171

> <i_i_glide_posenum>
85

> <r_i_glide_eff_state_penalty>
0

> <s_user_duplicate_titles>
180655

> <s_m_subgroup_title>
dock_pv

> <s_m_subgroupid>
dock_pv1

> <b_m_subgroup_collapsed>
0

$$$$
113713
                    3D
 Schrodinger Suite 2021-1.
 77 80  0  0  1  0            999 V2000
   29.7008   72.7522   82.6181 C   0  0  0  0  0  0
   30.8752   72.0077   82.6886 C   0  0  0  0  0  0
   31.8552   72.3530   83.6161 C   0  0  0  0  0  0
   31.6496   73.4310   84.4829 C   0  0  0  0  0  0
   30.4727   74.1808   84.3954 C   0  0  0  0  0  0
   29.4950   73.8377   83.4658 C   0  0  0  0  0  0
   32.7096   73.7789   85.5254 C   0  0  0  0  0  0
   32.5373   73.0200   86.8622 C   0  0  0  0  0  0
   31.3878   73.5477   87.7453 C   0  0  0  0  0  0
   31.0336   72.6216   88.9278 C   0  0  0  0  0  0
   30.0068   73.2137   89.9209 C   0  0  0  0  0  0
   28.7460   73.7852   89.2374 C   0  0  0  0  0  0
   27.4774   73.8228   90.1135 C   0  0  0  0  0  0
   26.9531   72.7521   90.4192 O   0  0  0  0  0  0
   26.9067   75.0071   90.4544 N   0  0  0  0  0  0
   25.4670   75.0464   90.7727 C   0  0  0  0  0  0
   24.7247   75.4257   89.4641 C   0  0  0  0  0  0
   25.2982   76.6851   88.9603 N   0  0  0  0  0  0
   26.7565   76.7582   88.7544 C   0  0  0  0  0  0
   27.4528   76.3178   90.0684 C   0  0  0  0  0  0
   24.6020   77.8252   89.1174 C   0  0  0  0  0  0
   24.5472   78.4051   90.2022 O   0  0  0  0  0  0
   23.9612   78.2406   88.0032 N   0  0  0  0  0  0
   23.7083   77.5750   86.6794 C   0  0  1  0  0  0
   22.8994   78.8266   86.2611 C   0  0  2  0  0  0
   23.0836   79.2957   87.7325 C   0  0  0  0  0  0
   22.6187   80.2096   88.4132 O   0  0  0  0  0  0
   21.4206   78.5466   85.9442 C   0  0  0  0  0  0
   21.1606   77.7258   84.6646 C   0  0  0  0  0  0
   19.6656   77.4267   84.5197 C   0  0  0  0  0  0
   19.3522   76.5509   83.2996 C   0  0  0  0  0  0
   19.8576   77.1766   82.0757 N   0  0  1  0  0  0
   21.2633   77.6063   82.1001 C   0  0  0  0  0  0
   21.6766   78.3822   83.3717 C   0  0  0  0  0  0
   24.9284   77.3721   85.7598 C   0  0  0  0  0  0
   25.9843   77.9531   85.8773 O   0  0  0  0  0  0
   24.6393   76.4376   84.8171 O   0  0  0  0  0  0
   23.1332   76.6536   86.8009 H   0  0  0  0  0  0
   23.3397   79.5037   85.5248 H   0  0  0  0  0  0
   28.9446   72.4807   81.8938 H   0  0  0  0  0  0
   31.0220   71.1660   82.0262 H   0  0  0  0  0  0
   32.7645   71.7718   83.6630 H   0  0  0  0  0  0
   30.3081   75.0223   85.0528 H   0  0  0  0  0  0
   28.5838   74.4134   83.3993 H   0  0  0  0  0  0
   33.6898   73.5528   85.0999 H   0  0  0  0  0  0
   32.7259   74.8575   85.6972 H   0  0  0  0  0  0
   32.3899   71.9607   86.6542 H   0  0  0  0  0  0
   33.4690   73.0823   87.4273 H   0  0  0  0  0  0
   31.6410   74.5430   88.1122 H   0  0  0  0  0  0
   30.4983   73.6733   87.1297 H   0  0  0  0  0  0
   30.6456   71.6805   88.5350 H   0  0  0  0  0  0
   31.9391   72.3595   89.4767 H   0  0  0  0  0  0
   29.7389   72.4319   90.6335 H   0  0  0  0  0  0
   30.4805   74.0026   90.5051 H   0  0  0  0  0  0
   28.9807   74.7446   88.7837 H   0  0  0  0  0  0
   28.4875   73.1524   88.3909 H   0  0  0  0  0  0
   25.1048   74.1306   91.2429 H   0  0  0  0  0  0
   25.3052   75.8364   91.5086 H   0  0  0  0  0  0
   23.6464   75.4974   89.6090 H   0  0  0  0  0  0
   24.9064   74.6458   88.7241 H   0  0  0  0  0  0
   27.0743   77.7642   88.4730 H   0  0  0  0  0  0
   27.0282   76.0745   87.9491 H   0  0  0  0  0  0
   27.1596   77.0248   90.8482 H   0  0  0  0  0  0
   28.5433   76.3644   90.0762 H   0  0  0  0  0  0
   20.9745   78.0074   86.7797 H   0  0  0  0  0  0
   20.8812   79.4948   85.8818 H   0  0  0  0  0  0
   21.6495   76.7529   84.7314 H   0  0  0  0  0  0
   19.3500   76.9057   85.4200 H   0  0  0  0  0  0
   19.0659   78.3384   84.5012 H   0  0  0  0  0  0
   19.7504   75.5529   83.4323 H   0  0  0  0  0  0
   18.2828   76.3719   83.2171 H   0  0  0  0  0  0
   19.6753   76.6136   81.2543 H   0  0  0  0  0  0
   21.9194   76.7521   81.9700 H   0  0  0  0  0  0
   21.4157   78.2482   81.2317 H   0  0  0  0  0  0
   21.3482   79.4128   83.2836 H   0  0  0  0  0  0
   22.7615   78.4836   83.4099 H   0  0  0  0  0  0
   25.3497   76.3544   84.1709 H   0  0  0  0  0  0
  1  6  1  0  0  0
  1  2  2  0  0  0
  1 40  1  0  0  0
  2  3  1  0  0  0
  2 41  1  0  0  0
  3  4  2  0  0  0
  3 42  1  0  0  0
  4  5  1  0  0  0
  4  7  1  0  0  0
  5  6  2  0  0  0
  5 43  1  0  0  0
  6 44  1  0  0  0
  7  8  1  0  0  0
  7 45  1  0  0  0
  7 46  1  0  0  0
  8  9  1  0  0  0
  8 47  1  0  0  0
  8 48  1  0  0  0
  9 10  1  0  0  0
  9 49  1  0  0  0
  9 50  1  0  0  0
 10 11  1  0  0  0
 10 51  1  0  0  0
 10 52  1  0  0  0
 11 12  1  0  0  0
 11 53  1  0  0  0
 11 54  1  0  0  0
 12 13  1  0  0  0
 12 55  1  0  0  0
 12 56  1  0  0  0
 13 14  2  0  0  0
 13 15  1  0  0  0
 15 20  1  0  0  0
 15 16  1  0  0  0
 16 17  1  0  0  0
 16 57  1  0  0  0
 16 58  1  0  0  0
 17 18  1  0  0  0
 17 59  1  0  0  0
 17 60  1  0  0  0
 18 19  1  0  0  0
 18 21  1  0  0  0
 19 20  1  0  0  0
 19 61  1  0  0  0
 19 62  1  0  0  0
 20 63  1  0  0  0
 20 64  1  0  0  0
 21 22  2  0  0  0
 21 23  1  0  0  0
 23 26  1  0  0  0
 23 24  1  0  0  0
 24 38  1  0  0  0
 24 25  1  0  0  0
 24 35  1  0  0  0
 25 39  1  0  0  0
 25 26  1  0  0  0
 25 28  1  0  0  0
 26 27  2  0  0  0
 28 29  1  0  0  0
 28 65  1  0  0  0
 28 66  1  0  0  0
 29 34  1  0  0  0
 29 30  1  0  0  0
 29 67  1  0  0  0
 30 31  1  0  0  0
 30 68  1  0  0  0
 30 69  1  0  0  0
 31 32  1  0  0  0
 31 70  1  0  0  0
 31 71  1  0  0  0
 32 33  1  0  0  0
 32 72  1  0  0  0
 33 34  1  0  0  0
 33 73  1  0  0  0
 33 74  1  0  0  0
 34 75  1  0  0  0
 34 76  1  0  0  0
 35 36  2  0  0  0
 35 37  1  0  0  0
 37 77  1  0  0  0
M  END
> <s_m_entry_id>
40731

> <s_m_entry_name>
ligand_docking-pose.35

> <s_m_Source_Path>
/home/csk/Desktop/cluster/DUD-E-result/tryb1

> <s_m_Source_File>
ligand_docking-pose.sdf

> <i_m_Source_File_Index>
35

> <i_lp_mmshare_version>
53161

> <i_f3d_flags>
0

> <r_lp_tautomer_probability>
1

> <s_lp_Force_Field>
OPLS_2005

> <r_lp_Energy>
82.773201

> <b_lp_Chiralities_Consistent>
1

> <s_lp_Variant>
113713-1

> <s_i_glide_gridfile>
glide-grid_2zec

> <i_i_glide_lignum>
64

> <i_i_glide_rotatable_bonds>
14

> <r_i_docking_score>
-6.92663721107065

> <r_i_glide_ligand_efficiency>
-0.187206411110018

> <r_i_glide_ligand_efficiency_sa>
-0.623813293118171

> <r_i_glide_ligand_efficiency_ln>
-1.50222522766588

> <r_i_glide_gscore>
-6.92663721107065

> <r_i_glide_lipo>
-3.65208179649487

> <r_i_glide_hbond>
-0.281774656370359

> <r_i_glide_metal>
0

> <r_i_glide_rewards>
-0.403863804153163

> <r_i_glide_evdw>
-45.1424522399902

> <r_i_glide_ecoul>
-8.43721008300781

> <r_i_glide_erotb>
0.936112264668731

> <r_i_glide_esite>
-0.00232509427030659

> <r_i_glide_emodel>
-68.2267233799584

> <r_i_glide_energy>
-53.579662322998

> <r_i_glide_einternal>
11.5667791366577

> <i_i_glide_confnum>
72

> <i_i_glide_posenum>
219

> <r_i_glide_eff_state_penalty>
0

> <s_user_duplicate_titles>
113713

> <s_m_subgroup_title>
dock_pv

> <s_m_subgroupid>
dock_pv1

> <b_m_subgroup_collapsed>
0

$$$$
114092
                    3D
 Schrodinger Suite 2021-1.
 62 66  0  0  1  0            999 V2000
   21.3380   77.9552   82.3479 C   0  0  0  0  0  0
   20.2370   77.3602   82.9653 C   0  0  0  0  0  0
   20.2049   77.1533   84.3455 C   0  0  0  0  0  0
   21.3350   77.5520   85.0711 C   0  0  0  0  0  0
   22.4754   78.1274   84.4636 C   0  0  0  0  0  0
   22.4619   78.3497   83.0792 C   0  0  0  0  0  0
   23.4091   78.3140   85.5275 C   0  0  0  0  0  0
   22.7846   77.8563   86.6850 C   0  0  0  0  0  0
   21.5266   77.3916   86.4166 O   0  0  0  0  0  0
   23.2788   77.7746   88.0403 C   0  0  0  0  0  0
   22.8513   78.5597   88.8891 O   0  0  0  0  0  0
   24.2844   76.8887   88.2838 N   0  0  0  0  0  0
   24.4998   75.6714   87.4766 C   0  0  0  0  0  0
   24.6860   74.4474   88.4119 C   0  0  0  0  0  0
   25.7124   74.7615   89.4156 N   0  0  0  0  0  0
   25.4689   75.9401   90.2554 C   0  0  0  0  0  0
   25.2798   77.1738   89.3389 C   0  0  0  0  0  0
   26.5580   73.7993   89.8473 C   0  0  0  0  0  0
   26.1506   72.7699   90.3943 O   0  0  0  0  0  0
   27.8709   74.0635   89.6280 N   0  0  0  0  0  0
   28.5874   75.2462   89.0292 C   0  0  1  0  0  0
   29.9088   74.4482   89.1402 C   0  0  2  0  0  0
   29.0717   73.4163   89.9512 C   0  0  0  0  0  0
   29.3501   72.4166   90.6113 O   0  0  0  0  0  0
   31.0301   75.1162   89.9820 C   0  0  0  0  0  0
   32.4647   74.6588   89.6186 C   0  0  0  0  0  0
   33.5291   75.2577   90.5606 C   0  0  0  0  0  0
   34.9602   74.8464   90.1441 C   0  0  0  0  0  0
   35.1105   73.3879   90.0352 N   0  0  1  0  0  0
   34.0888   72.7495   89.2012 C   0  0  0  0  0  0
   32.6687   73.1346   89.6681 C   0  0  0  0  0  0
   28.2651   75.5536   87.5546 C   0  0  0  0  0  0
   27.7486   74.7659   86.7910 O   0  0  0  0  0  0
   28.6254   76.8289   87.2540 O   0  0  0  0  0  0
   28.5115   76.1337   89.6607 H   0  0  0  0  0  0
   30.3098   74.0498   88.2049 H   0  0  0  0  0  0
   21.3247   78.0994   81.2750 H   0  0  0  0  0  0
   19.4095   77.0335   82.3540 H   0  0  0  0  0  0
   19.3650   76.6723   84.8198 H   0  0  0  0  0  0
   23.3131   78.7876   82.5778 H   0  0  0  0  0  0
   24.4062   78.7223   85.4681 H   0  0  0  0  0  0
   25.3954   75.8177   86.8736 H   0  0  0  0  0  0
   23.6545   75.4717   86.8171 H   0  0  0  0  0  0
   24.9511   73.5604   87.8304 H   0  0  0  0  0  0
   23.7439   74.2688   88.9351 H   0  0  0  0  0  0
   24.5490   75.7696   90.8094 H   0  0  0  0  0  0
   26.2810   76.1141   90.9641 H   0  0  0  0  0  0
   25.0125   78.0435   89.9427 H   0  0  0  0  0  0
   26.2259   77.3926   88.8430 H   0  0  0  0  0  0
   30.8584   74.9817   91.0524 H   0  0  0  0  0  0
   30.9833   76.1962   89.8244 H   0  0  0  0  0  0
   32.6882   74.9939   88.6031 H   0  0  0  0  0  0
   33.3437   74.9880   91.6024 H   0  0  0  0  0  0
   33.4490   76.3453   90.5572 H   0  0  0  0  0  0
   35.6803   75.2143   90.8769 H   0  0  0  0  0  0
   35.2203   75.3006   89.1843 H   0  0  0  0  0  0
   36.0375   73.1630   89.6978 H   0  0  0  0  0  0
   34.2273   71.6676   89.2168 H   0  0  0  0  0  0
   34.2402   73.0696   88.1691 H   0  0  0  0  0  0
   31.9421   72.6243   89.0351 H   0  0  0  0  0  0
   32.4579   72.7523   90.6675 H   0  0  0  0  0  0
   28.4393   77.0239   86.3327 H   0  0  0  0  0  0
  1  6  1  0  0  0
  1  2  2  0  0  0
  1 37  1  0  0  0
  2  3  1  0  0  0
  2 38  1  0  0  0
  3  4  2  0  0  0
  3 39  1  0  0  0
  4  9  1  0  0  0
  4  5  1  0  0  0
  5  6  2  0  0  0
  5  7  1  0  0  0
  6 40  1  0  0  0
  7  8  2  0  0  0
  7 41  1  0  0  0
  8  9  1  0  0  0
  8 10  1  0  0  0
 10 11  2  0  0  0
 10 12  1  0  0  0
 12 17  1  0  0  0
 12 13  1  0  0  0
 13 14  1  0  0  0
 13 42  1  0  0  0
 13 43  1  0  0  0
 14 15  1  0  0  0
 14 44  1  0  0  0
 14 45  1  0  0  0
 15 16  1  0  0  0
 15 18  1  0  0  0
 16 17  1  0  0  0
 16 46  1  0  0  0
 16 47  1  0  0  0
 17 48  1  0  0  0
 17 49  1  0  0  0
 18 19  2  0  0  0
 18 20  1  0  0  0
 20 23  1  0  0  0
 20 21  1  0  0  0
 21 35  1  0  0  0
 21 22  1  0  0  0
 21 32  1  0  0  0
 22 36  1  0  0  0
 22 23  1  0  0  0
 22 25  1  0  0  0
 23 24  2  0  0  0
 25 26  1  0  0  0
 25 50  1  0  0  0
 25 51  1  0  0  0
 26 31  1  0  0  0
 26 27  1  0  0  0
 26 52  1  0  0  0
 27 28  1  0  0  0
 27 53  1  0  0  0
 27 54  1  0  0  0
 28 29  1  0  0  0
 28 55  1  0  0  0
 28 56  1  0  0  0
 29 30  1  0  0  0
 29 57  1  0  0  0
 30 31  1  0  0  0
 30 58  1  0  0  0
 30 59  1  0  0  0
 31 60  1  0  0  0
 31 61  1  0  0  0
 32 33  2  0  0  0
 32 34  1  0  0  0
 34 62  1  0  0  0
M  END
> <s_m_entry_id>
40732

> <s_m_entry_name>
ligand_docking-pose.36

> <s_m_Source_Path>
/home/csk/Desktop/cluster/DUD-E-result/tryb1

> <s_m_Source_File>
ligand_docking-pose.sdf

> <i_m_Source_File_Index>
36

> <i_lp_mmshare_version>
53161

> <i_f3d_flags>
0

> <r_lp_tautomer_probability>
1

> <s_lp_Force_Field>
OPLS_2005

> <r_lp_Energy>
89.784225

> <b_lp_Chiralities_Consistent>
1

> <s_lp_Variant>
114092-1

> <s_i_glide_gridfile>
glide-grid_2zec

> <i_i_glide_lignum>
26

> <i_i_glide_rotatable_bonds>
8

> <r_i_docking_score>
-6.92057647917035

> <r_i_glide_ligand_efficiency>
-0.203546367034422

> <r_i_glide_ligand_efficiency_sa>
-0.659411211976765

> <r_i_glide_ligand_efficiency_ln>
-1.52894945984384

> <r_i_glide_gscore>
-6.92057647917035

> <r_i_glide_lipo>
-2.36042601182907

> <r_i_glide_hbond>
-0.724181067638281

> <r_i_glide_metal>
0

> <r_i_glide_rewards>
-0.955727816462946

> <r_i_glide_evdw>
-43.2254829406738

> <r_i_glide_ecoul>
-9.07206249237061

> <r_i_glide_erotb>
0.643902538444618

> <r_i_glide_esite>
-0.00206060079539173

> <r_i_glide_emodel>
-66.6888121424154

> <r_i_glide_energy>
-52.2975454330444

> <r_i_glide_einternal>
14.4047508239746

> <i_i_glide_confnum>
199

> <i_i_glide_posenum>
329

> <r_i_glide_eff_state_penalty>
0

> <s_user_duplicate_titles>
114092

> <s_m_subgroup_title>
dock_pv

> <s_m_subgroupid>
dock_pv1

> <b_m_subgroup_collapsed>
0

$$$$
173469
                    3D
 Schrodinger Suite 2021-1.
 68 71  0  0  1  0            999 V2000
   20.2722   77.1513   82.1892 C   0  0  0  0  0  0
   21.3227   78.0596   82.1017 C   0  0  0  0  0  0
   21.8138   78.6650   83.2555 C   0  0  0  0  0  0
   21.2497   78.3555   84.4959 C   0  0  0  0  0  0
   20.1945   77.4436   84.5796 C   0  0  0  0  0  0
   19.7113   76.8352   83.4244 C   0  0  0  0  0  0
   21.7469   79.0586   85.7491 C   0  0  0  0  0  0
   22.8376   78.2958   86.4831 C   0  0  0  0  0  0
   22.5223   77.1522   87.2184 C   0  0  0  0  0  0
   23.5190   76.4497   87.8864 C   0  0  0  0  0  0
   24.8481   76.8853   87.8364 C   0  0  0  0  0  0
   25.1554   78.0485   87.1100 C   0  0  0  0  0  0
   24.1552   78.7520   86.4454 C   0  0  0  0  0  0
   25.9248   76.0720   88.5195 C   0  0  0  0  0  0
   25.7014   74.9241   88.9142 O   0  0  0  0  0  0
   27.1337   76.6591   88.6391 N   0  0  0  0  0  0
   28.3995   76.0336   89.0829 C   0  0  2  0  0  0
   29.4761   77.1398   89.1965 C   0  0  0  0  0  0
   30.6203   76.8138   90.1716 C   0  0  0  0  0  0
   31.4146   75.5360   89.8593 C   0  0  0  0  0  0
   30.5701   74.2508   89.7887 C   0  0  0  0  0  0
   29.8127   74.0624   88.5396 N   0  0  0  0  0  0
   28.8012   74.8780   88.1041 C   0  0  0  0  0  0
   28.2625   74.7518   86.9985 O   0  0  0  0  0  0
   30.2338   72.9446   87.6635 C   0  0  0  0  0  0
   31.1127   73.4178   86.4911 C   0  0  0  0  0  0
   32.0763   74.1593   86.6984 O   0  0  0  0  0  0
   30.7152   72.9659   85.2845 N   0  0  0  0  0  0
   31.2592   73.1824   84.0092 C   0  0  0  0  0  0
   30.5517   72.6203   82.9416 C   0  0  0  0  0  0
   30.9870   72.8013   81.6320 C   0  0  0  0  0  0
   32.1340   73.5523   81.3751 C   0  0  0  0  0  0
   32.8788   74.0911   82.4289 C   0  0  0  0  0  0
   32.4339   73.9100   83.7439 C   0  0  0  0  0  0
   34.1424   74.8910   82.1339 C   0  0  0  0  0  0
   35.3071   74.3513   82.8167 N   0  0  0  0  0  0
   19.8986   76.6855   81.2898 H   0  0  0  0  0  0
   21.7474   78.3010   81.1402 H   0  0  0  0  0  0
   22.6231   79.3765   83.1791 H   0  0  0  0  0  0
   19.7504   77.2041   85.5360 H   0  0  0  0  0  0
   18.9103   76.1116   83.4803 H   0  0  0  0  0  0
   20.9045   79.2313   86.4193 H   0  0  0  0  0  0
   22.1095   80.0523   85.4801 H   0  0  0  0  0  0
   21.5062   76.7852   87.2539 H   0  0  0  0  0  0
   23.2493   75.5489   88.4258 H   0  0  0  0  0  0
   26.1696   78.4168   87.0282 H   0  0  0  0  0  0
   24.4130   79.6420   85.8877 H   0  0  0  0  0  0
   27.1438   77.6662   88.5822 H   0  0  0  0  0  0
   28.2080   75.6278   90.0778 H   0  0  0  0  0  0
   29.0245   78.0790   89.5241 H   0  0  0  0  0  0
   29.8981   77.3567   88.2124 H   0  0  0  0  0  0
   30.2115   76.7366   91.1812 H   0  0  0  0  0  0
   31.3116   77.6577   90.2033 H   0  0  0  0  0  0
   32.1506   75.4094   90.6562 H   0  0  0  0  0  0
   31.9924   75.6555   88.9415 H   0  0  0  0  0  0
   29.8561   74.2873   90.6128 H   0  0  0  0  0  0
   31.1624   73.3630   90.0147 H   0  0  0  0  0  0
   29.3519   72.4228   87.2953 H   0  0  0  0  0  0
   30.7982   72.2100   88.2370 H   0  0  0  0  0  0
   29.8716   72.4131   85.2853 H   0  0  0  0  0  0
   29.6525   72.0456   83.1143 H   0  0  0  0  0  0
   30.4323   72.3622   80.8153 H   0  0  0  0  0  0
   32.4497   73.6948   80.3516 H   0  0  0  0  0  0
   33.0141   74.3530   84.5391 H   0  0  0  0  0  0
   33.9872   75.9253   82.4442 H   0  0  0  0  0  0
   34.3434   74.9189   81.0616 H   0  0  0  0  0  0
   35.0347   73.5118   83.3078 H   0  0  0  0  0  0
   35.9918   74.0498   82.1306 H   0  0  0  0  0  0
  1  6  1  0  0  0
  1  2  2  0  0  0
  1 37  1  0  0  0
  2  3  1  0  0  0
  2 38  1  0  0  0
  3  4  2  0  0  0
  3 39  1  0  0  0
  4  5  1  0  0  0
  4  7  1  0  0  0
  5  6  2  0  0  0
  5 40  1  0  0  0
  6 41  1  0  0  0
  7  8  1  0  0  0
  7 42  1  0  0  0
  7 43  1  0  0  0
  8 13  1  0  0  0
  8  9  2  0  0  0
  9 10  1  0  0  0
  9 44  1  0  0  0
 10 11  2  0  0  0
 10 45  1  0  0  0
 11 12  1  0  0  0
 11 14  1  0  0  0
 12 13  2  0  0  0
 12 46  1  0  0  0
 13 47  1  0  0  0
 14 15  2  0  0  0
 14 16  1  0  0  0
 16 17  1  0  0  0
 16 48  1  0  0  0
 17 23  1  0  0  0
 17 18  1  0  0  0
 17 49  1  0  0  0
 18 19  1  0  0  0
 18 50  1  0  0  0
 18 51  1  0  0  0
 19 20  1  0  0  0
 19 52  1  0  0  0
 19 53  1  0  0  0
 20 21  1  0  0  0
 20 54  1  0  0  0
 20 55  1  0  0  0
 21 22  1  0  0  0
 21 56  1  0  0  0
 21 57  1  0  0  0
 22 23  1  0  0  0
 22 25  1  0  0  0
 23 24  2  0  0  0
 25 26  1  0  0  0
 25 58  1  0  0  0
 25 59  1  0  0  0
 26 27  2  0  0  0
 26 28  1  0  0  0
 28 29  1  0  0  0
 28 60  1  0  0  0
 29 34  1  0  0  0
 29 30  2  0  0  0
 30 31  1  0  0  0
 30 61  1  0  0  0
 31 32  2  0  0  0
 31 62  1  0  0  0
 32 33  1  0  0  0
 32 63  1  0  0  0
 33 34  2  0  0  0
 33 35  1  0  0  0
 34 64  1  0  0  0
 35 36  1  0  0  0
 35 65  1  0  0  0
 35 66  1  0  0  0
 36 67  1  0  0  0
 36 68  1  0  0  0
M  END
> <s_m_entry_id>
40733

> <s_m_entry_name>
ligand_docking-pose.37

> <s_m_Source_Path>
/home/csk/Desktop/cluster/DUD-E-result/tryb1

> <s_m_Source_File>
ligand_docking-pose.sdf

> <i_m_Source_File_Index>
37

> <i_lp_mmshare_version>
53161

> <i_f3d_flags>
0

> <r_lp_tautomer_probability>
1

> <s_lp_Force_Field>
OPLS_2005

> <r_lp_Energy>
37.463313

> <b_lp_Chiralities_Consistent>
1

> <s_lp_Variant>
173469-1

> <s_i_glide_gridfile>
glide-grid_2zec

> <i_i_glide_lignum>
58

> <i_i_glide_rotatable_bonds>
10

> <r_i_docking_score>
-6.90288619918622

> <r_i_glide_ligand_efficiency>
-0.191746838866284

> <r_i_glide_ligand_efficiency_sa>
-0.633134111385707

> <r_i_glide_ligand_efficiency_ln>
-1.50602327422942

> <r_i_glide_gscore>
-6.90288619918622

> <r_i_glide_lipo>
-3.78157111248227

> <r_i_glide_hbond>
-0.30590879272537

> <r_i_glide_metal>
0

> <r_i_glide_rewards>
-0.38195250736404

> <r_i_glide_evdw>
-45.2627868652344

> <r_i_glide_ecoul>
-6.32453536987305

> <r_i_glide_erotb>
0.77836586212814

> <r_i_glide_esite>
0

> <r_i_glide_emodel>
-73.9194244417154

> <r_i_glide_energy>
-51.5873222351074

> <r_i_glide_einternal>
3.01345729827881

> <i_i_glide_confnum>
13

> <i_i_glide_posenum>
13

> <r_i_glide_eff_state_penalty>
0

> <s_user_duplicate_titles>
173469

> <s_m_subgroup_title>
dock_pv

> <s_m_subgroupid>
dock_pv1

> <b_m_subgroup_collapsed>
0

$$$$
309355
                    3D
 Schrodinger Suite 2021-1.
 56 58  0  0  1  0            999 V2000
   26.6481   80.9588   83.6512 C   0  0  0  0  0  0
   27.0736   79.4937   83.7738 C   0  0  0  0  0  0
   27.8388   78.8609   82.8356 C   0  0  0  0  0  0
   28.1971   77.5483   82.9525 N   0  0  0  0  0  0
   27.8187   76.8986   83.9995 C   0  0  0  0  0  0
   26.9740   77.4629   85.0978 C   0  0  0  0  0  0
   26.6039   76.7905   86.0707 O   0  0  0  0  0  0
   26.6465   78.8032   84.9162 N   0  0  0  0  0  0
   25.8903   79.4439   86.0282 C   0  0  0  0  0  0
   24.3550   79.3119   85.9342 C   0  0  0  0  0  0
   23.7128   79.7681   86.8773 O   0  0  0  0  0  0
   23.7985   78.7275   84.8460 N   0  0  0  0  0  0
   22.4423   78.4346   84.5910 C   0  0  0  0  0  0
   21.4118   78.5504   85.5400 C   0  0  0  0  0  0
   20.1098   78.1835   85.2170 C   0  0  0  0  0  0
   19.8152   77.6801   83.9551 C   0  0  0  0  0  0
   20.8206   77.5641   82.9943 C   0  0  0  0  0  0
   22.1302   77.9510   83.3149 C   0  0  0  0  0  0
   20.4882   76.9323   81.6529 C   0  0  0  0  0  0
   20.9500   77.7107   80.5256 N   0  0  0  0  0  0
   28.2047   75.5670   84.1478 N   0  0  0  0  0  0
   28.9627   74.7680   83.1818 C   0  0  2  0  0  0
   28.8598   73.2842   83.5718 C   0  0  0  0  0  0
   29.6282   72.3957   82.5682 C   0  0  0  0  0  0
   31.1049   72.8038   82.2993 C   0  0  1  0  0  0
   31.2319   74.3424   82.1316 C   0  0  0  0  0  0
   30.4475   75.1827   83.1618 C   0  0  0  0  0  0
   31.9619   72.3514   83.3806 N   0  0  0  0  0  0
   28.4967   79.6646   81.4037 Cl  0  0  0  0  0  0
   26.9353   81.4037   82.6992 H   0  0  0  0  0  0
   25.5647   81.0583   83.7266 H   0  0  0  0  0  0
   27.1071   81.5632   84.4344 H   0  0  0  0  0  0
   26.1601   80.4948   86.1210 H   0  0  0  0  0  0
   26.2069   79.0216   86.9837 H   0  0  0  0  0  0
   24.4323   78.4573   84.1091 H   0  0  0  0  0  0
   21.5811   78.9061   86.5427 H   0  0  0  0  0  0
   19.3292   78.2886   85.9547 H   0  0  0  0  0  0
   18.8062   77.3707   83.7306 H   0  0  0  0  0  0
   22.9095   77.8333   82.5742 H   0  0  0  0  0  0
   19.4127   76.7797   81.5496 H   0  0  0  0  0  0
   20.9490   75.9521   81.6116 H   0  0  0  0  0  0
   20.3944   78.5464   80.3764 H   0  0  0  0  0  0
   21.9387   77.9520   80.5258 H   0  0  0  0  0  0
   27.9378   75.0966   85.0002 H   0  0  0  0  0  0
   28.5191   74.9119   82.1941 H   0  0  0  0  0  0
   29.2599   73.1267   84.5752 H   0  0  0  0  0  0
   27.8149   72.9737   83.6030 H   0  0  0  0  0  0
   29.0967   72.3531   81.6189 H   0  0  0  0  0  0
   29.5954   71.3604   82.9115 H   0  0  0  0  0  0
   31.3668   72.3743   81.3303 H   0  0  0  0  0  0
   30.9499   74.6137   81.1133 H   0  0  0  0  0  0
   32.2853   74.6256   82.1736 H   0  0  0  0  0  0
   30.5550   76.2392   82.9164 H   0  0  0  0  0  0
   30.8853   75.0546   84.1533 H   0  0  0  0  0  0
   31.9943   71.3403   83.3737 H   0  0  0  0  0  0
   32.9068   72.6594   83.2061 H   0  0  0  0  0  0
  1  2  1  0  0  0
  1 30  1  0  0  0
  1 31  1  0  0  0
  1 32  1  0  0  0
  2  8  1  0  0  0
  2  3  2  0  0  0
  3  4  1  0  0  0
  3 29  1  0  0  0
  4  5  2  0  0  0
  5  6  1  0  0  0
  5 21  1  0  0  0
  6  7  2  0  0  0
  6  8  1  0  0  0
  8  9  1  0  0  0
  9 10  1  0  0  0
  9 33  1  0  0  0
  9 34  1  0  0  0
 10 11  2  0  0  0
 10 12  1  0  0  0
 12 13  1  0  0  0
 12 35  1  0  0  0
 13 18  1  0  0  0
 13 14  2  0  0  0
 14 15  1  0  0  0
 14 36  1  0  0  0
 15 16  2  0  0  0
 15 37  1  0  0  0
 16 17  1  0  0  0
 16 38  1  0  0  0
 17 18  2  0  0  0
 17 19  1  0  0  0
 18 39  1  0  0  0
 19 20  1  0  0  0
 19 40  1  0  0  0
 19 41  1  0  0  0
 20 42  1  0  0  0
 20 43  1  0  0  0
 21 22  1  0  0  0
 21 44  1  0  0  0
 22 27  1  0  0  0
 22 23  1  0  0  0
 22 45  1  0  0  0
 23 24  1  0  0  0
 23 46  1  0  0  0
 23 47  1  0  0  0
 24 25  1  0  0  0
 24 48  1  0  0  0
 24 49  1  0  0  0
 25 26  1  0  0  0
 25 28  1  0  0  0
 25 50  1  0  0  0
 26 27  1  0  0  0
 26 51  1  0  0  0
 26 52  1  0  0  0
 27 53  1  0  0  0
 27 54  1  0  0  0
 28 55  1  0  0  0
 28 56  1  0  0  0
M  END
> <s_m_entry_id>
40737

> <s_m_entry_name>
ligand_docking-pose.41

> <s_m_Source_Path>
/home/csk/Desktop/cluster/DUD-E-result/tryb1

> <s_m_Source_File>
ligand_docking-pose.sdf

> <i_m_Source_File_Index>
41

> <i_lp_mmshare_version>
53161

> <i_f3d_flags>
0

> <r_lp_tautomer_probability>
1

> <s_lp_Force_Field>
OPLS_2005

> <r_lp_Energy>
32.800634

> <b_lp_Chiralities_Consistent>
1

> <s_lp_Variant>
309355-1

> <s_i_glide_gridfile>
glide-grid_2zec

> <i_i_glide_lignum>
201

> <i_i_glide_rotatable_bonds>
7

> <r_i_docking_score>
-6.82927269999965

> <r_i_glide_ligand_efficiency>
-0.235492162068953

> <r_i_glide_ligand_efficiency_sa>
-0.723506531029497

> <r_i_glide_ligand_efficiency_ln>
-1.56373027288623

> <r_i_glide_gscore>
-6.82927269999965

> <r_i_glide_lipo>
-3.24131529390627

> <r_i_glide_hbond>
-0.566823888921146

> <r_i_glide_metal>
0

> <r_i_glide_rewards>
-0.634611040255868

> <r_i_glide_evdw>
-41.1981735229492

> <r_i_glide_ecoul>
-6.68553447723389

> <r_i_glide_erotb>
0.676216370816174

> <r_i_glide_esite>
0

> <r_i_glide_emodel>
-66.3959766708754

> <r_i_glide_energy>
-47.8837080001831

> <r_i_glide_einternal>
2.44339632987976

> <i_i_glide_confnum>
52

> <i_i_glide_posenum>
9

> <r_i_glide_eff_state_penalty>
0

> <s_user_duplicate_titles>
309355

> <s_m_subgroup_title>
dock_pv

> <s_m_subgroupid>
dock_pv1

> <b_m_subgroup_collapsed>
0

$$$$
308897
                    3D
 Schrodinger Suite 2021-1.
 56 58  0  0  1  0            999 V2000
   25.9473   82.6930   82.1242 C   0  0  0  0  0  0
   26.9605   81.5846   82.4161 C   0  0  0  0  0  0
   28.0513   81.3438   81.6275 C   0  0  0  0  0  0
   28.9156   80.3113   81.8719 N   0  0  0  0  0  0
   28.7120   79.5813   82.9138 C   0  0  0  0  0  0
   27.6003   79.7720   83.8942 C   0  0  0  0  0  0
   27.4750   79.0750   84.9123 O   0  0  0  0  0  0
   26.7141   80.7834   83.5394 N   0  0  0  0  0  0
   25.4649   80.8511   84.3498 C   0  0  0  0  0  0
   24.4123   79.8436   83.8315 C   0  0  0  0  0  0
   24.6378   79.1770   82.8189 O   0  0  0  0  0  0
   23.2897   79.7336   84.5753 N   0  0  0  0  0  0
   22.1897   78.8846   84.3399 C   0  0  0  0  0  0
   21.4172   78.4987   85.4386 C   0  0  0  0  0  0
   20.3358   77.6333   85.2676 C   0  0  0  0  0  0
   20.0097   77.1544   84.0016 C   0  0  0  0  0  0
   20.7476   77.5528   82.8867 C   0  0  0  0  0  0
   21.8313   78.4230   83.0645 C   0  0  0  0  0  0
   20.3743   76.9879   81.5194 C   0  0  0  0  0  0
   20.9493   77.7277   80.4169 N   0  0  0  0  0  0
   29.5505   78.5023   83.1724 N   0  0  0  0  0  0
   30.6357   78.0123   82.3220 C   0  0  0  0  0  0
   30.7058   76.4841   82.2362 C   0  0  0  0  0  0
   31.7665   75.9144   81.5261 C   0  0  0  0  0  0
   31.8881   74.5305   81.4188 C   0  0  0  0  0  0
   30.9502   73.6973   82.0236 C   0  0  0  0  0  0
   29.8691   74.2423   82.7351 C   0  0  0  0  0  0
   29.7556   75.6348   82.8281 C   0  0  0  0  0  0
   28.7881   73.3866   83.3965 C   0  0  0  0  0  0
   28.9516   71.9536   83.2172 N   0  0  0  0  0  0
   28.4269   82.2839   80.1761 Cl  0  0  0  0  0  0
   26.1813   83.2554   81.2212 H   0  0  0  0  0  0
   24.9497   82.2768   81.9829 H   0  0  0  0  0  0
   25.9155   83.4105   82.9450 H   0  0  0  0  0  0
   25.0561   81.8606   84.3556 H   0  0  0  0  0  0
   25.6765   80.6556   85.4026 H   0  0  0  0  0  0
   23.2675   80.2397   85.4462 H   0  0  0  0  0  0
   21.6572   78.8495   86.4319 H   0  0  0  0  0  0
   19.7506   77.3216   86.1168 H   0  0  0  0  0  0
   19.1828   76.4688   83.8866 H   0  0  0  0  0  0
   22.3913   78.7385   82.1978 H   0  0  0  0  0  0
   19.2905   77.0092   81.4026 H   0  0  0  0  0  0
   20.6938   75.9522   81.4563 H   0  0  0  0  0  0
   21.9454   77.5762   80.2869 H   0  0  0  0  0  0
   20.4891   77.5498   79.5222 H   0  0  0  0  0  0
   29.4508   78.0477   84.0698 H   0  0  0  0  0  0
   30.5656   78.4151   81.3097 H   0  0  0  0  0  0
   31.5797   78.3786   82.7283 H   0  0  0  0  0  0
   32.5047   76.5446   81.0508 H   0  0  0  0  0  0
   32.7092   74.1038   80.8618 H   0  0  0  0  0  0
   31.0701   72.6297   81.9161 H   0  0  0  0  0  0
   28.9144   76.0494   83.3635 H   0  0  0  0  0  0
   28.7861   73.5981   84.4670 H   0  0  0  0  0  0
   27.8135   73.6751   82.9981 H   0  0  0  0  0  0
   28.8518   71.6897   82.2424 H   0  0  0  0  0  0
   29.8692   71.6596   83.5203 H   0  0  0  0  0  0
  1  2  1  0  0  0
  1 32  1  0  0  0
  1 33  1  0  0  0
  1 34  1  0  0  0
  2  8  1  0  0  0
  2  3  2  0  0  0
  3  4  1  0  0  0
  3 31  1  0  0  0
  4  5  2  0  0  0
  5  6  1  0  0  0
  5 21  1  0  0  0
  6  7  2  0  0  0
  6  8  1  0  0  0
  8  9  1  0  0  0
  9 10  1  0  0  0
  9 35  1  0  0  0
  9 36  1  0  0  0
 10 11  2  0  0  0
 10 12  1  0  0  0
 12 13  1  0  0  0
 12 37  1  0  0  0
 13 18  1  0  0  0
 13 14  2  0  0  0
 14 15  1  0  0  0
 14 38  1  0  0  0
 15 16  2  0  0  0
 15 39  1  0  0  0
 16 17  1  0  0  0
 16 40  1  0  0  0
 17 18  2  0  0  0
 17 19  1  0  0  0
 18 41  1  0  0  0
 19 20  1  0  0  0
 19 42  1  0  0  0
 19 43  1  0  0  0
 20 44  1  0  0  0
 20 45  1  0  0  0
 21 22  1  0  0  0
 21 46  1  0  0  0
 22 23  1  0  0  0
 22 47  1  0  0  0
 22 48  1  0  0  0
 23 28  1  0  0  0
 23 24  2  0  0  0
 24 25  1  0  0  0
 24 49  1  0  0  0
 25 26  2  0  0  0
 25 50  1  0  0  0
 26 27  1  0  0  0
 26 51  1  0  0  0
 27 28  2  0  0  0
 27 29  1  0  0  0
 28 52  1  0  0  0
 29 30  1  0  0  0
 29 53  1  0  0  0
 29 54  1  0  0  0
 30 55  1  0  0  0
 30 56  1  0  0  0
M  END
> <s_m_entry_id>
40738

> <s_m_entry_name>
ligand_docking-pose.42

> <s_m_Source_Path>
/home/csk/Desktop/cluster/DUD-E-result/tryb1

> <s_m_Source_File>
ligand_docking-pose.sdf

> <i_m_Source_File_Index>
42

> <i_lp_mmshare_version>
53161

> <i_f3d_flags>
0

> <r_lp_tautomer_probability>
1

> <s_lp_Force_Field>
OPLS_2005

> <r_lp_Energy>
29.673075

> <b_lp_Chiralities_Consistent>
1

> <s_lp_Variant>
308897-1

> <s_i_glide_gridfile>
glide-grid_2zec

> <i_i_glide_lignum>
204

> <i_i_glide_rotatable_bonds>
9

> <r_i_docking_score>
-6.82848110337592

> <r_i_glide_ligand_efficiency>
-0.220273583979868

> <r_i_glide_ligand_efficiency_sa>
-0.691963174155205

> <r_i_glide_ligand_efficiency_ln>
-1.54003175662497

> <r_i_glide_gscore>
-6.82848110337592

> <r_i_glide_lipo>
-3.29833653056669

> <r_i_glide_hbond>
-0.578543955244901

> <r_i_glide_metal>
0

> <r_i_glide_rewards>
-0.676316364426517

> <r_i_glide_evdw>
-44.8356552124023

> <r_i_glide_ecoul>
-5.01703405380249

> <r_i_glide_erotb>
0.719053615552682

> <r_i_glide_esite>
0

> <r_i_glide_emodel>
-69.607675386315

> <r_i_glide_energy>
-49.8526892662048

> <r_i_glide_einternal>
4.33243036270142

> <i_i_glide_confnum>
22

> <i_i_glide_posenum>
276

> <r_i_glide_eff_state_penalty>
0

> <s_user_duplicate_titles>
308897

> <s_m_subgroup_title>
dock_pv

> <s_m_subgroupid>
dock_pv1

> <b_m_subgroup_collapsed>
0

$$$$
