CHEMBL2023_lig2
                    3D
 Schrodinger Suite 2021-1.
 32 34  0  0  1  0            999 V2000
   -5.6540   -9.7572  -17.0906 C   0  0  0  0  0  0
   -5.6540  -10.6332  -16.0745 N   0  0  0  0  0  0
   -5.0779  -11.8288  -16.2230 C   0  0  0  0  0  0
   -4.3058  -12.1256  -17.3465 C   0  0  0  0  0  0
   -4.2360  -11.1354  -18.3421 C   0  0  0  0  0  0
   -4.9185   -9.9722  -18.1943 N   0  3  0  0  0  0
   -5.2540  -12.6860  -15.1814 O   0  0  0  0  0  0
   -3.6540  -13.3137  -17.4767 O   0  5  0  0  0  0
   -6.5919   -8.6205  -17.0230 C   0  0  0  0  0  0
   -6.4925   -7.5123  -17.8965 C   0  0  0  0  0  0
   -7.4373   -6.4601  -17.8552 C   0  0  0  0  0  0
   -8.4574   -6.5029  -16.8859 C   0  0  0  0  0  0
   -8.5734   -7.5925  -16.0098 C   0  0  0  0  0  0
   -7.6540   -8.6501  -16.0893 C   0  0  0  0  0  0
   -7.3811   -5.3353  -18.8015 C   0  0  0  0  0  0
   -6.1623   -4.6860  -19.0800 C   0  0  0  0  0  0
   -6.0918   -3.6011  -19.9680 C   0  0  0  0  0  0
   -7.2540   -3.1736  -20.6230 C   0  0  0  0  0  0
   -8.4795   -3.8155  -20.3726 C   0  0  0  0  0  0
   -8.5457   -4.8797  -19.4555 C   0  0  0  0  0  0
   -4.9451   -9.3101  -18.9682 H   0  0  0  0  0  0
   -3.6930  -11.2581  -19.2684 H   0  0  0  0  0  0
   -5.4174  -13.5716  -15.5202 H   0  0  0  0  0  0
   -5.6979   -7.4635  -18.6230 H   0  0  0  0  0  0
   -9.1763   -5.6987  -16.8190 H   0  0  0  0  0  0
   -9.3706   -7.6204  -15.2811 H   0  0  0  0  0  0
   -7.7904   -9.4860  -15.4225 H   0  0  0  0  0  0
   -5.2540   -5.0390  -18.6230 H   0  0  0  0  0  0
   -5.1447   -3.1239  -20.1725 H   0  0  0  0  0  0
   -7.1956   -2.3613  -21.3268 H   0  0  0  0  0  0
   -9.3800   -3.4860  -20.8697 H   0  0  0  0  0  0
   -9.4995   -5.3498  -19.2642 H   0  0  0  0  0  0
  1  6  2  0  0  0
  1  9  1  0  0  0
  1  2  1  0  0  0
  2  3  2  0  0  0
  3  7  1  0  0  0
  3  4  1  0  0  0
  4  5  2  0  0  0
  4  8  1  0  0  0
  5 22  1  0  0  0
  5  6  1  0  0  0
  6 21  1  0  0  0
  7 23  1  0  0  0
  9 10  1  0  0  0
  9 14  2  0  0  0
 10 11  2  0  0  0
 10 24  1  0  0  0
 11 12  1  0  0  0
 11 15  1  0  0  0
 12 13  2  0  0  0
 12 25  1  0  0  0
 13 14  1  0  0  0
 13 26  1  0  0  0
 14 27  1  0  0  0
 15 16  2  0  0  0
 15 20  1  0  0  0
 16 17  1  0  0  0
 16 28  1  0  0  0
 17 18  2  0  0  0
 17 29  1  0  0  0
 18 19  1  0  0  0
 18 30  1  0  0  0
 19 20  2  0  0  0
 19 31  1  0  0  0
 20 32  1  0  0  0
M  CHG  2   6   1   8  -1
M  END
> <s_m_entry_id>
3

> <s_m_entry_name>
glide-dock_SP_comt_chembl_pv.2

> <s_m_Source_Path>
/home/csk/Desktop/cluster/DUD-E-result/comt/glide-dock_SP_comt_chembl

> <s_m_Source_File>
glide-dock_SP_comt_chembl_pv.maegz

> <i_m_Source_File_Index>
2

> <chembl_id>
CHEMBL3335576

> <chembl_pref_name>
None

> <i_lp_mmshare_version>
53161

> <i_f3d_flags>
0

> <r_lp_tautomer_probability>
0.194478469287003

> <s_lp_Force_Field>
OPLS_2005

> <r_lp_Energy>
11.157077

> <b_lp_Chiralities_Consistent>
1

> <s_lp_Variant>
CHEMBL2023_lig2-2

> <s_i_glide_gridfile>
glide-grid_3bwm

> <i_i_glide_lignum>
4

> <i_i_glide_rotatable_bonds>
3

> <r_i_docking_score>
-9.8785566368018

> <r_i_glide_ligand_efficiency>
-0.49392783184009

> <r_i_glide_ligand_efficiency_sa>
-1.34072640673445

> <r_i_glide_ligand_efficiency_ln>
-2.47227690958768

> <r_i_glide_gscore>
-9.8785566368018

> <r_i_glide_lipo>
-2.24379025064203

> <r_i_glide_hbond>
0

> <r_i_glide_metal>
-2.3

> <r_i_glide_rewards>
-1.90719081818182

> <r_i_glide_evdw>
-29.5592613220215

> <r_i_glide_ecoul>
-15.6225652694702

> <r_i_glide_erotb>
0.508979389974489

> <r_i_glide_esite>
-0.115207101430837

> <r_i_glide_emodel>
-87.1044989079731

> <r_i_glide_energy>
-45.1818265914917

> <r_i_glide_einternal>
2.92535185813904

> <i_i_glide_confnum>
5

> <i_i_glide_posenum>
223

> <r_i_glide_eff_state_penalty>
0

> <s_user_duplicate_titles>
CHEMBL2023_lig2,CHEMBL2023_lig2,CHEMBL2023_lig2,CHEMBL2023_lig2,CHEMBL2023_lig2,CHEMBL2023_lig2,CHEMBL2023_lig2,CHEMBL2023_lig2,CHEMBL2023_lig2,CHEMBL2023_lig2,CHEMBL2023_lig2,CHEMBL2023_lig2,CHEMBL2023_lig2,CHEMBL2023_lig2

> <s_m_subgroup_title>
glide-dock_SP_comt_chembl_pv

> <s_m_subgroupid>
glide-dock_SP_comt_chembl_pv

> <b_m_subgroup_collapsed>
1

$$$$
CHEMBL2023_lig61
                    3D
 Schrodinger Suite 2021-1.
 27 28  0  0  1  0            999 V2000
   -2.3782  -12.5582  -20.9083 O   0  0  0  0  0  0
   -3.0182  -11.3519  -20.3634 S   0  0  0  0  0  0
   -2.2193  -10.1230  -20.2230 O   0  0  0  0  0  0
   -4.1650  -13.4860  -17.0791 C   0  0  0  0  0  0
   -3.6540  -13.1093  -18.3332 C   0  0  0  0  0  0
   -3.7123  -11.7634  -18.7517 C   0  0  0  0  0  0
   -4.7446  -12.5178  -16.2398 C   0  0  0  0  0  0
   -4.8504  -11.1802  -16.6574 C   0  0  0  0  0  0
   -4.3349  -10.7932  -17.9242 C   0  0  0  0  0  0
   -4.5025   -9.4441  -18.3103 C   0  0  0  0  0  0
   -5.2469   -8.5857  -17.4865 C   0  0  0  0  0  0
   -5.7491   -9.0860  -16.2772 C   0  0  0  0  0  0
   -5.4739  -10.3176  -15.8230 N   0  0  0  0  0  0
   -5.2540  -12.8812  -15.0230 O   0  0  0  0  0  0
   -4.4701  -10.9899  -21.4332 C   0  0  0  0  0  0
   -4.0238  -10.5777  -22.8393 C   0  0  0  0  0  0
   -4.1217  -14.5198  -16.7660 H   0  0  0  0  0  0
   -3.2039  -13.8605  -18.9663 H   0  0  0  0  0  0
   -4.1307   -9.0563  -19.2435 H   0  0  0  0  0  0
   -5.4495   -7.5641  -17.7770 H   0  0  0  0  0  0
   -6.3661   -8.4741  -15.6381 H   0  0  0  0  0  0
   -5.6890  -13.7392  -15.1059 H   0  0  0  0  0  0
   -5.0582  -10.1972  -20.9782 H   0  0  0  0  0  0
   -5.0946  -11.8821  -21.4679 H   0  0  0  0  0  0
   -4.8838  -10.3714  -23.4766 H   0  0  0  0  0  0
   -3.4373  -11.3660  -23.3121 H   0  0  0  0  0  0
   -3.4097   -9.6772  -22.8067 H   0  0  0  0  0  0
  1  2  2  0  0  0
  2  3  2  0  0  0
  2  6  1  0  0  0
  2 15  1  0  0  0
  4  5  2  0  0  0
  4  7  1  0  0  0
  4 17  1  0  0  0
  5  6  1  0  0  0
  5 18  1  0  0  0
  6  9  2  0  0  0
  7  8  2  0  0  0
  7 14  1  0  0  0
  8  9  1  0  0  0
  8 13  1  0  0  0
  9 10  1  0  0  0
 10 11  2  0  0  0
 10 19  1  0  0  0
 11 12  1  0  0  0
 11 20  1  0  0  0
 12 13  2  0  0  0
 12 21  1  0  0  0
 14 22  1  0  0  0
 15 16  1  0  0  0
 15 23  1  0  0  0
 15 24  1  0  0  0
 16 25  1  0  0  0
 16 26  1  0  0  0
 16 27  1  0  0  0
M  END
> <s_m_entry_id>
5

> <s_m_entry_name>
glide-dock_SP_comt_chembl_pv.4

> <s_m_Source_Path>
/home/csk/Desktop/cluster/DUD-E-result/comt/glide-dock_SP_comt_chembl

> <s_m_Source_File>
glide-dock_SP_comt_chembl_pv.maegz

> <i_m_Source_File_Index>
4

> <chembl_id>
CHEMBL4162990

> <chembl_pref_name>
None

> <i_lp_mmshare_version>
53161

> <i_f3d_flags>
0

> <r_lp_tautomer_probability>
1

> <s_lp_Force_Field>
OPLS_2005

> <r_lp_Energy>
10.289695

> <b_lp_Chiralities_Consistent>
1

> <s_lp_Variant>
CHEMBL2023_lig61-1

> <s_i_glide_gridfile>
glide-grid_3bwm

> <i_i_glide_lignum>
82

> <i_i_glide_rotatable_bonds>
3

> <r_i_docking_score>
-9.43606403062967

> <r_i_glide_ligand_efficiency>
-0.589754001914354

> <r_i_glide_ligand_efficiency_sa>
-1.48608696116984

> <r_i_glide_ligand_efficiency_ln>
-2.50121726097604

> <r_i_glide_gscore>
-9.43606403062967

> <r_i_glide_lipo>
-0.424243113169234

> <r_i_glide_hbond>
-0.463270693634209

> <r_i_glide_metal>
-2.3

> <r_i_glide_rewards>
-1.83296707575758

> <r_i_glide_evdw>
-17.9872341156006

> <r_i_glide_ecoul>
-25.0409927368164

> <r_i_glide_erotb>
0.306144893941296

> <r_i_glide_esite>
-0.0662174257074567

> <r_i_glide_emodel>
-77.4594661411872

> <r_i_glide_energy>
-43.028226852417

> <r_i_glide_einternal>
2.35777258872986

> <i_i_glide_confnum>
3

> <i_i_glide_posenum>
72

> <r_i_glide_eff_state_penalty>
0

> <s_user_duplicate_titles>
CHEMBL2023_lig61,CHEMBL2023_lig61,CHEMBL2023_lig61,CHEMBL2023_lig61,CHEMBL2023_lig61

> <s_m_subgroup_title>
glide-dock_SP_comt_chembl_pv

> <s_m_subgroupid>
glide-dock_SP_comt_chembl_pv

> <b_m_subgroup_collapsed>
1

$$$$
CHEMBL2023_lig52
                    3D
 Schrodinger Suite 2021-1.
 18 19  0  0  1  0            999 V2000
   -5.2540  -12.8168  -15.0230 O   0  0  0  0  0  0
   -4.7109  -12.5763  -16.2564 C   0  0  0  0  0  0
   -4.1859  -13.6380  -17.0208 C   0  0  0  0  0  0
   -3.6540  -13.3962  -18.3001 C   0  0  0  0  0  0
   -3.6540  -12.0914  -18.8249 C   0  0  0  0  0  0
   -4.1938  -11.0337  -18.0666 C   0  0  0  0  0  0
   -4.2431   -9.7292  -18.5929 C   0  0  0  0  0  0
   -4.8494   -8.7224  -17.8230 C   0  0  0  0  0  0
   -5.3633   -9.0599  -16.5601 C   0  0  0  0  0  0
   -5.2540  -10.2860  -16.0052 N   0  0  0  0  0  0
   -4.7216  -11.2681  -16.7691 C   0  0  0  0  0  0
   -5.6921  -13.6756  -15.0508 H   0  0  0  0  0  0
   -4.2102  -14.6462  -16.6310 H   0  0  0  0  0  0
   -3.2548  -14.2146  -18.8816 H   0  0  0  0  0  0
   -3.2572  -11.9120  -19.8140 H   0  0  0  0  0  0
   -3.8606   -9.5088  -19.5790 H   0  0  0  0  0  0
   -4.9462   -7.7131  -18.1978 H   0  0  0  0  0  0
   -5.8648   -8.3133  -15.9672 H   0  0  0  0  0  0
  1  2  1  0  0  0
  1 12  1  0  0  0
  2  3  2  0  0  0
  2 11  1  0  0  0
  3  4  1  0  0  0
  3 13  1  0  0  0
  4  5  2  0  0  0
  4 14  1  0  0  0
  5  6  1  0  0  0
  5 15  1  0  0  0
  6  7  2  0  0  0
  6 11  1  0  0  0
  7  8  1  0  0  0
  7 16  1  0  0  0
  8  9  2  0  0  0
  8 17  1  0  0  0
  9 10  1  0  0  0
  9 18  1  0  0  0
 10 11  2  0  0  0
M  END
> <s_m_entry_id>
7

> <s_m_entry_name>
glide-dock_SP_comt_chembl_pv.6

> <s_m_Source_Path>
/home/csk/Desktop/cluster/DUD-E-result/comt/glide-dock_SP_comt_chembl

> <s_m_Source_File>
glide-dock_SP_comt_chembl_pv.maegz

> <i_m_Source_File_Index>
6

> <chembl_id>
CHEMBL310555

> <chembl_pref_name>
OXYQUINOLINE

> <i_lp_mmshare_version>
53161

> <i_f3d_flags>
0

> <r_lp_tautomer_probability>
1

> <s_lp_Force_Field>
OPLS_2005

> <r_lp_Energy>
10.573693

> <b_lp_Chiralities_Consistent>
1

> <s_lp_Variant>
CHEMBL2023_lig52-1

> <s_i_glide_gridfile>
glide-grid_3bwm

> <i_i_glide_lignum>
72

> <i_i_glide_rotatable_bonds>
1

> <r_i_docking_score>
-9.40413638872703

> <r_i_glide_ligand_efficiency>
-0.854921489884276

> <r_i_glide_ligand_efficiency_sa>
-1.90132837098276

> <r_i_glide_ligand_efficiency_ln>
-2.76763573733753

> <r_i_glide_gscore>
-9.40413638872703

> <r_i_glide_lipo>
-0.503435366535428

> <r_i_glide_hbond>
-0.444508683691415

> <r_i_glide_metal>
-2.3

> <r_i_glide_rewards>
-2.32468131783979

> <r_i_glide_evdw>
-15.8236351013184

> <r_i_glide_ecoul>
-20.2688617706299

> <r_i_glide_erotb>
0

> <r_i_glide_esite>
0

> <r_i_glide_emodel>
-66.7143524115487

> <r_i_glide_energy>
-36.0924968719482

> <r_i_glide_einternal>
1.00808298587799

> <i_i_glide_confnum>
1

> <i_i_glide_posenum>
113

> <r_i_glide_eff_state_penalty>
0

> <s_user_duplicate_titles>
CHEMBL2023_lig52,CHEMBL2023_lig52,CHEMBL2023_lig52,CHEMBL2023_lig52,CHEMBL2023_lig52

> <s_m_subgroup_title>
glide-dock_SP_comt_chembl_pv

> <s_m_subgroupid>
glide-dock_SP_comt_chembl_pv

> <b_m_subgroup_collapsed>
1

$$$$
CHEMBL2023_lig77
                    3D
 Schrodinger Suite 2021-1.
 22 23  0  0  1  0            999 V2000
   -3.0209  -11.3914  -20.3682 S   0  0  0  0  0  0
   -5.2540  -12.8801  -15.0230 O   0  0  0  0  0  0
   -2.0594  -10.2858  -20.2230 O   0  0  0  0  0  0
   -2.6670  -12.6320  -21.0729 O   0  0  0  0  0  0
   -4.3953  -10.7767  -21.1072 O   0  0  0  0  0  0
   -5.4299  -10.3135  -15.8230 N   0  0  0  0  0  0
   -4.8230  -11.1873  -16.6579 C   0  0  0  0  0  0
   -4.7330  -12.5246  -16.2367 C   0  0  0  0  0  0
   -4.3125  -10.8142  -17.9310 C   0  0  0  0  0  0
   -5.6987   -9.0860  -16.2919 C   0  0  0  0  0  0
   -3.7069  -11.7947  -18.7558 C   0  0  0  0  0  0
   -4.1588  -13.5005  -17.0702 C   0  0  0  0  0  0
   -4.4664   -9.4681  -18.3317 C   0  0  0  0  0  0
   -3.6475  -13.1364  -18.3276 C   0  0  0  0  0  0
   -5.1991   -8.5986  -17.5086 C   0  0  0  0  0  0
   -5.6911  -13.7372  -15.1048 H   0  0  0  0  0  0
   -4.9805  -11.4861  -21.3204 H   0  0  0  0  0  0
   -6.3099   -8.4636  -15.6582 H   0  0  0  0  0  0
   -4.1235  -14.5328  -16.7510 H   0  0  0  0  0  0
   -4.0959   -9.0958  -19.2743 H   0  0  0  0  0  0
   -3.2014  -13.8919  -18.9586 H   0  0  0  0  0  0
   -5.3979   -7.5787  -17.8074 H   0  0  0  0  0  0
  1  3  2  0  0  0
  1  4  2  0  0  0
  1  5  1  0  0  0
  1 11  1  0  0  0
  2  8  1  0  0  0
  2 16  1  0  0  0
  5 17  1  0  0  0
  6  7  1  0  0  0
  6 10  2  0  0  0
  7  8  2  0  0  0
  7  9  1  0  0  0
  8 12  1  0  0  0
  9 11  2  0  0  0
  9 13  1  0  0  0
 10 15  1  0  0  0
 10 18  1  0  0  0
 11 14  1  0  0  0
 12 14  2  0  0  0
 12 19  1  0  0  0
 13 15  2  0  0  0
 13 20  1  0  0  0
 14 21  1  0  0  0
 15 22  1  0  0  0
M  END
> <s_m_entry_id>
8

> <s_m_entry_name>
glide-dock_SP_comt_chembl_pv.7

> <s_m_Source_Path>
/home/csk/Desktop/cluster/DUD-E-result/comt/glide-dock_SP_comt_chembl

> <s_m_Source_File>
glide-dock_SP_comt_chembl_pv.maegz

> <i_m_Source_File_Index>
7

> <chembl_id>
CHEMBL2407598

> <chembl_pref_name>
None

> <i_lp_mmshare_version>
53161

> <i_f3d_flags>
0

> <r_lp_tautomer_probability>
1

> <s_lp_Force_Field>
OPLS_2005

> <r_lp_Energy>
12.0205

> <b_lp_Chiralities_Consistent>
1

> <s_lp_Variant>
CHEMBL2023_lig77-1

> <s_i_glide_gridfile>
glide-grid_3bwm

> <i_i_glide_lignum>
99

> <i_i_glide_rotatable_bonds>
3

> <r_i_docking_score>
-9.30906653680721

> <r_i_glide_ligand_efficiency>
-0.620604435787147

> <r_i_glide_ligand_efficiency_sa>
-1.53054215153972

> <r_i_glide_ligand_efficiency_ln>
-2.51050175481446

> <r_i_glide_gscore>
-9.30906653680721

> <r_i_glide_lipo>
-0.377555468622478

> <r_i_glide_hbond>
-0.462819146486427

> <r_i_glide_metal>
-2.3

> <r_i_glide_rewards>
-1.9151518030303

> <r_i_glide_evdw>
-17.8326416015625

> <r_i_glide_ecoul>
-24.2349109649658

> <r_i_glide_erotb>
0.334483554634898

> <r_i_glide_esite>
-0.0611549484799014

> <r_i_glide_emodel>
-75.6916571772713

> <r_i_glide_energy>
-42.0675525665283

> <r_i_glide_einternal>
1.38426876068115

> <i_i_glide_confnum>
2

> <i_i_glide_posenum>
107

> <r_i_glide_eff_state_penalty>
0

> <s_user_duplicate_titles>
CHEMBL2023_lig77,CHEMBL2023_lig77,CHEMBL2023_lig77,CHEMBL2023_lig77,CHEMBL2023_lig77

> <s_m_subgroup_title>
glide-dock_SP_comt_chembl_pv

> <s_m_subgroupid>
glide-dock_SP_comt_chembl_pv

> <b_m_subgroup_collapsed>
1

$$$$
CHEMBL2023_lig56
                    3D
 Schrodinger Suite 2021-1.
 32 34  0  0  1  0            999 V2000
   -4.0563  -13.3255  -17.0474 C   0  0  0  0  0  0
   -3.5475  -12.8990  -18.2867 C   0  0  0  0  0  0
   -3.7164  -11.5640  -18.7171 C   0  0  0  0  0  0
   -4.7417  -12.4170  -16.2238 C   0  0  0  0  0  0
   -4.9380  -11.0900  -16.6370 C   0  0  0  0  0  0
   -4.4136  -10.6521  -17.8810 C   0  0  0  0  0  0
   -4.6548   -9.3078  -18.2499 C   0  0  0  0  0  0
   -5.4721   -8.5082  -17.4370 C   0  0  0  0  0  0
   -5.9854   -9.0629  -16.2569 C   0  0  0  0  0  0
   -5.6540  -10.2860  -15.8230 N   0  0  0  0  0  0
   -5.2540  -12.8254  -15.0230 O   0  0  0  0  0  0
   -3.1704  -11.1440  -20.0555 C   0  0  0  0  0  0
   -2.2865  -10.2858  -20.1088 O   0  0  0  0  0  0
   -3.7067  -11.7212  -21.1524 N   0  0  0  0  0  0
   -3.2838  -11.3887  -22.5111 C   0  0  0  0  0  0
   -4.0756  -12.3167  -23.4332 C   0  0  0  0  0  0
   -5.3238  -12.6613  -22.6326 C   0  0  0  0  0  0
   -4.8497  -12.6368  -21.1805 C   0  0  0  0  0  0
   -3.9267  -14.3508  -16.7339 H   0  0  0  0  0  0
   -3.0186  -13.6069  -18.9096 H   0  0  0  0  0  0
   -4.2674   -8.8889  -19.1641 H   0  0  0  0  0  0
   -5.7162   -7.4914  -17.7115 H   0  0  0  0  0  0
   -6.6354   -8.4889  -15.6135 H   0  0  0  0  0  0
   -5.6734  -13.6890  -15.1267 H   0  0  0  0  0  0
   -2.2078  -11.5145  -22.6437 H   0  0  0  0  0  0
   -3.5306  -10.3451  -22.7153 H   0  0  0  0  0  0
   -3.5002  -13.2244  -23.6205 H   0  0  0  0  0  0
   -4.3031  -11.8615  -24.3976 H   0  0  0  0  0  0
   -6.0791  -11.8881  -22.7829 H   0  0  0  0  0  0
   -5.7616  -13.6181  -22.9196 H   0  0  0  0  0  0
   -5.6536  -12.3202  -20.5134 H   0  0  0  0  0  0
   -4.5221  -13.6310  -20.8747 H   0  0  0  0  0  0
  1  2  2  0  0  0
  1  4  1  0  0  0
  1 19  1  0  0  0
  2  3  1  0  0  0
  2 20  1  0  0  0
  3  6  2  0  0  0
  3 12  1  0  0  0
  4  5  2  0  0  0
  4 11  1  0  0  0
  5  6  1  0  0  0
  5 10  1  0  0  0
  6  7  1  0  0  0
  7  8  2  0  0  0
  7 21  1  0  0  0
  8  9  1  0  0  0
  8 22  1  0  0  0
  9 10  2  0  0  0
  9 23  1  0  0  0
 11 24  1  0  0  0
 12 13  2  0  0  0
 12 14  1  0  0  0
 14 15  1  0  0  0
 14 18  1  0  0  0
 15 16  1  0  0  0
 15 25  1  0  0  0
 15 26  1  0  0  0
 16 17  1  0  0  0
 16 27  1  0  0  0
 16 28  1  0  0  0
 17 18  1  0  0  0
 17 29  1  0  0  0
 17 30  1  0  0  0
 18 31  1  0  0  0
 18 32  1  0  0  0
M  END
> <s_m_entry_id>
10

> <s_m_entry_name>
glide-dock_SP_comt_chembl_pv.9

> <s_m_Source_Path>
/home/csk/Desktop/cluster/DUD-E-result/comt/glide-dock_SP_comt_chembl

> <s_m_Source_File>
glide-dock_SP_comt_chembl_pv.maegz

> <i_m_Source_File_Index>
9

> <chembl_id>
CHEMBL4173789

> <chembl_pref_name>
None

> <i_lp_mmshare_version>
53161

> <i_f3d_flags>
0

> <r_lp_tautomer_probability>
1

> <s_lp_Force_Field>
OPLS_2005

> <r_lp_Energy>
43.137488

> <b_lp_Chiralities_Consistent>
1

> <s_lp_Variant>
CHEMBL2023_lig56-1

> <s_i_glide_gridfile>
glide-grid_3bwm

> <i_i_glide_lignum>
76

> <i_i_glide_rotatable_bonds>
3

> <r_i_docking_score>
-9.17341217326345

> <r_i_glide_ligand_efficiency>
-0.509634009625747

> <r_i_glide_ligand_efficiency_sa>
-1.33561894363604

> <r_i_glide_ligand_efficiency_ln>
-2.35797829722686

> <r_i_glide_gscore>
-9.17341217326345

> <r_i_glide_lipo>
-0.522286080492311

> <r_i_glide_hbond>
-0.678619396890756

> <r_i_glide_metal>
-2.3

> <r_i_glide_rewards>
-1.75655733408576

> <r_i_glide_evdw>
-21.014705657959

> <r_i_glide_ecoul>
-23.0407962799072

> <r_i_glide_erotb>
0.590905363089415

> <r_i_glide_esite>
0

> <r_i_glide_emodel>
-77.8071571208204

> <r_i_glide_energy>
-44.0555019378662

> <r_i_glide_einternal>
1.75931549072266

> <i_i_glide_confnum>
13

> <i_i_glide_posenum>
252

> <r_i_glide_eff_state_penalty>
0

> <s_user_duplicate_titles>
CHEMBL2023_lig56,CHEMBL2023_lig56,CHEMBL2023_lig56,CHEMBL2023_lig56,CHEMBL2023_lig56

> <s_m_subgroup_title>
glide-dock_SP_comt_chembl_pv

> <s_m_subgroupid>
glide-dock_SP_comt_chembl_pv

> <b_m_subgroup_collapsed>
1

$$$$
CHEMBL2023_lig57
                    3D
 Schrodinger Suite 2021-1.
 34 36  0  0  1  0            999 V2000
   -2.4288  -13.0156  -20.9257 O   0  0  0  0  0  0
   -3.1391  -11.7904  -20.5303 S   0  0  0  0  0  0
   -2.4391  -10.4980  -20.6223 O   0  0  0  0  0  0
   -4.1642  -13.5959  -17.0224 C   0  0  0  0  0  0
   -3.6579  -13.3323  -18.3057 C   0  0  0  0  0  0
   -3.7101  -12.0267  -18.8342 C   0  0  0  0  0  0
   -4.7009  -12.5529  -16.2455 C   0  0  0  0  0  0
   -4.7366  -11.2389  -16.7417 C   0  0  0  0  0  0
   -4.2772  -10.9750  -18.0633 C   0  0  0  0  0  0
   -4.4527   -9.6626  -18.5602 C   0  0  0  0  0  0
   -5.0711   -8.6990  -17.7501 C   0  0  0  0  0  0
   -5.4733   -9.0693  -16.4600 C   0  0  0  0  0  0
   -5.2568  -10.2866  -15.9317 N   0  0  0  0  0  0
   -5.2539  -12.8211  -15.0210 O   0  0  0  0  0  0
   -4.7219  -11.7179  -21.4891 C   0  0  0  0  0  0
   -4.6825  -10.7569  -22.6897 C   0  0  0  0  0  0
   -5.3944  -11.4815  -23.8435 C   0  0  0  0  0  0
   -6.0615  -12.7123  -23.2199 C   0  0  0  0  0  0
   -5.1571  -13.0775  -22.0460 C   0  0  0  0  0  0
   -4.1646  -14.6080  -16.6417 H   0  0  0  0  0  0
   -3.2566  -14.1460  -18.8919 H   0  0  0  0  0  0
   -4.1739   -9.3739  -19.5585 H   0  0  0  0  0  0
   -5.2547   -7.6969  -18.1124 H   0  0  0  0  0  0
   -5.9786   -8.3627  -15.8234 H   0  0  0  0  0  0
   -5.6883  -13.6813  -15.0629 H   0  0  0  0  0  0
   -5.4910  -11.3762  -20.8023 H   0  0  0  0  0  0
   -3.6610  -10.5047  -22.9783 H   0  0  0  0  0  0
   -5.1964   -9.8240  -22.4437 H   0  0  0  0  0  0
   -4.6593  -11.7956  -24.5868 H   0  0  0  0  0  0
   -6.1190  -10.8405  -24.3483 H   0  0  0  0  0  0
   -6.1746  -13.5291  -23.9329 H   0  0  0  0  0  0
   -7.0542  -12.4486  -22.8519 H   0  0  0  0  0  0
   -5.6533  -13.6940  -21.2976 H   0  0  0  0  0  0
   -4.3035  -13.6388  -22.4275 H   0  0  0  0  0  0
  1  2  2  0  0  0
  2  3  2  0  0  0
  2  6  1  0  0  0
  2 15  1  0  0  0
  4  5  2  0  0  0
  4  7  1  0  0  0
  4 20  1  0  0  0
  5  6  1  0  0  0
  5 21  1  0  0  0
  6  9  2  0  0  0
  7  8  2  0  0  0
  7 14  1  0  0  0
  8  9  1  0  0  0
  8 13  1  0  0  0
  9 10  1  0  0  0
 10 11  2  0  0  0
 10 22  1  0  0  0
 11 12  1  0  0  0
 11 23  1  0  0  0
 12 13  2  0  0  0
 12 24  1  0  0  0
 14 25  1  0  0  0
 15 16  1  0  0  0
 15 19  1  0  0  0
 15 26  1  0  0  0
 16 17  1  0  0  0
 16 27  1  0  0  0
 16 28  1  0  0  0
 17 18  1  0  0  0
 17 29  1  0  0  0
 17 30  1  0  0  0
 18 19  1  0  0  0
 18 31  1  0  0  0
 18 32  1  0  0  0
 19 33  1  0  0  0
 19 34  1  0  0  0
M  END
> <s_m_entry_id>
12

> <s_m_entry_name>
glide-dock_SP_comt_chembl_pv.11

> <s_m_Source_Path>
/home/csk/Desktop/cluster/DUD-E-result/comt/glide-dock_SP_comt_chembl

> <s_m_Source_File>
glide-dock_SP_comt_chembl_pv.maegz

> <i_m_Source_File_Index>
11

> <chembl_id>
CHEMBL4169861

> <chembl_pref_name>
None

> <i_lp_mmshare_version>
53161

> <i_f3d_flags>
0

> <r_lp_tautomer_probability>
1

> <s_lp_Force_Field>
OPLS_2005

> <r_lp_Energy>
23.561374

> <b_lp_Chiralities_Consistent>
1

> <s_lp_Variant>
CHEMBL2023_lig57-1

> <s_i_glide_gridfile>
glide-grid_3bwm

> <i_i_glide_lignum>
77

> <i_i_glide_rotatable_bonds>
3

> <r_i_docking_score>
-9.15426491391652

> <r_i_glide_ligand_efficiency>
-0.481803416521922

> <r_i_glide_ligand_efficiency_sa>
-1.28564502974513

> <r_i_glide_ligand_efficiency_ln>
-2.32080277126027

> <r_i_glide_gscore>
-9.15426491391652

> <r_i_glide_lipo>
-0.64780870977264

> <r_i_glide_hbond>
-0.444672130575806

> <r_i_glide_metal>
-2.3

> <r_i_glide_rewards>
-1.57647106060606

> <r_i_glide_evdw>
-21.9456462860107

> <r_i_glide_ecoul>
-23.5117168426514

> <r_i_glide_erotb>
0.468221408499849

> <r_i_glide_esite>
-0.0294945807636152

> <r_i_glide_emodel>
-78.3740958349452

> <r_i_glide_energy>
-45.4573631286621

> <r_i_glide_einternal>
5.34043025970459

> <i_i_glide_confnum>
20

> <i_i_glide_posenum>
8

> <r_i_glide_eff_state_penalty>
0

> <s_user_duplicate_titles>
CHEMBL2023_lig57,CHEMBL2023_lig57,CHEMBL2023_lig57,CHEMBL2023_lig57,CHEMBL2023_lig57

> <s_m_subgroup_title>
glide-dock_SP_comt_chembl_pv

> <s_m_subgroupid>
glide-dock_SP_comt_chembl_pv

> <b_m_subgroup_collapsed>
1

$$$$
CHEMBL2023_lig55
                    3D
 Schrodinger Suite 2021-1.
 33 35  0  0  1  0            999 V2000
   -4.0540  -13.3140  -17.0510 C   0  0  0  0  0  0
   -3.5270  -12.8785  -18.2801 C   0  0  0  0  0  0
   -3.6691  -11.5343  -18.6930 C   0  0  0  0  0  0
   -4.7364  -12.4066  -16.2230 C   0  0  0  0  0  0
   -4.9247  -11.0768  -16.6328 C   0  0  0  0  0  0
   -4.3829  -10.6283  -17.8652 C   0  0  0  0  0  0
   -4.6239   -9.2822  -18.2285 C   0  0  0  0  0  0
   -5.4603   -8.4951  -17.4230 C   0  0  0  0  0  0
   -5.9864   -9.0612  -16.2531 C   0  0  0  0  0  0
   -5.6540  -10.2860  -15.8230 N   0  0  0  0  0  0
   -5.2540  -12.8174  -15.0230 O   0  0  0  0  0  0
   -3.0822  -11.1233  -19.9984 C   0  0  0  0  0  0
   -2.2467  -10.2194  -20.0644 O   0  0  0  0  0  0
   -3.5507  -11.8569  -21.2048 C   0  0  0  0  0  0
   -4.8517  -12.4091  -21.2688 C   0  0  0  0  0  0
   -5.2816  -13.0860  -22.4256 C   0  0  0  0  0  0
   -4.4169  -13.2233  -23.5292 C   0  0  0  0  0  0
   -3.1222  -12.6686  -23.4743 C   0  0  0  0  0  0
   -2.6934  -11.9847  -22.3202 C   0  0  0  0  0  0
   -4.8857  -13.9551  -24.7697 C   0  0  0  0  0  0
   -3.9363  -14.3436  -16.7464 H   0  0  0  0  0  0
   -2.9994  -13.5865  -18.9046 H   0  0  0  0  0  0
   -4.2265   -8.8528  -19.1338 H   0  0  0  0  0  0
   -5.7074   -7.4783  -17.6939 H   0  0  0  0  0  0
   -6.6486   -8.4953  -15.6145 H   0  0  0  0  0  0
   -5.6706  -13.6820  -15.1277 H   0  0  0  0  0  0
   -5.5396  -12.3054  -20.4417 H   0  0  0  0  0  0
   -6.2809  -13.4926  -22.4658 H   0  0  0  0  0  0
   -2.4534  -12.7616  -24.3177 H   0  0  0  0  0  0
   -1.6985  -11.5628  -22.2970 H   0  0  0  0  0  0
   -5.3628  -14.8975  -24.4989 H   0  0  0  0  0  0
   -5.6078  -13.3470  -25.3149 H   0  0  0  0  0  0
   -4.0528  -14.1781  -25.4372 H   0  0  0  0  0  0
  1  2  2  0  0  0
  1  4  1  0  0  0
  1 21  1  0  0  0
  2  3  1  0  0  0
  2 22  1  0  0  0
  3  6  2  0  0  0
  3 12  1  0  0  0
  4  5  2  0  0  0
  4 11  1  0  0  0
  5  6  1  0  0  0
  5 10  1  0  0  0
  6  7  1  0  0  0
  7  8  2  0  0  0
  7 23  1  0  0  0
  8  9  1  0  0  0
  8 24  1  0  0  0
  9 10  2  0  0  0
  9 25  1  0  0  0
 11 26  1  0  0  0
 12 13  2  0  0  0
 12 14  1  0  0  0
 14 15  2  0  0  0
 14 19  1  0  0  0
 15 16  1  0  0  0
 15 27  1  0  0  0
 16 17  2  0  0  0
 16 28  1  0  0  0
 17 18  1  0  0  0
 17 20  1  0  0  0
 18 19  2  0  0  0
 18 29  1  0  0  0
 19 30  1  0  0  0
 20 31  1  0  0  0
 20 32  1  0  0  0
 20 33  1  0  0  0
M  END
> <s_m_entry_id>
13

> <s_m_entry_name>
glide-dock_SP_comt_chembl_pv.12

> <s_m_Source_Path>
/home/csk/Desktop/cluster/DUD-E-result/comt/glide-dock_SP_comt_chembl

> <s_m_Source_File>
glide-dock_SP_comt_chembl_pv.maegz

> <i_m_Source_File_Index>
12

> <chembl_id>
CHEMBL4163083

> <chembl_pref_name>
None

> <i_lp_mmshare_version>
53161

> <i_f3d_flags>
0

> <r_lp_tautomer_probability>
1

> <s_lp_Force_Field>
OPLS_2005

> <r_lp_Energy>
25.179995

> <b_lp_Chiralities_Consistent>
1

> <s_lp_Variant>
CHEMBL2023_lig55-1

> <s_i_glide_gridfile>
glide-grid_3bwm

> <i_i_glide_lignum>
75

> <i_i_glide_rotatable_bonds>
3

> <r_i_docking_score>
-9.12717230878421

> <r_i_glide_ligand_efficiency>
-0.45635861543921

> <r_i_glide_ligand_efficiency_sa>
-1.23874786399607

> <r_i_glide_ligand_efficiency_ln>
-2.28423019459862

> <r_i_glide_gscore>
-9.12717230878421

> <r_i_glide_lipo>
-0.577014233327704

> <r_i_glide_hbond>
-0.692908120776049

> <r_i_glide_metal>
-2.3

> <r_i_glide_rewards>
-1.61392759090909

> <r_i_glide_evdw>
-20.7651920318604

> <r_i_glide_ecoul>
-22.7822780609131

> <r_i_glide_erotb>
0.512278946958619

> <r_i_glide_esite>
0

> <r_i_glide_emodel>
-76.158027733703

> <r_i_glide_energy>
-43.5474700927734

> <r_i_glide_einternal>
2.78857135772705

> <i_i_glide_confnum>
3

> <i_i_glide_posenum>
42

> <r_i_glide_eff_state_penalty>
0

> <s_user_duplicate_titles>
CHEMBL2023_lig55,CHEMBL2023_lig55,CHEMBL2023_lig55,CHEMBL2023_lig55,CHEMBL2023_lig55

> <s_m_subgroup_title>
glide-dock_SP_comt_chembl_pv

> <s_m_subgroupid>
glide-dock_SP_comt_chembl_pv

> <b_m_subgroup_collapsed>
1

$$$$
CHEMBL2023_lig27
                    3D
 Schrodinger Suite 2021-1.
 36 37  0  0  1  0            999 V2000
   -5.2297   -8.8637  -17.2988 C   0  0  0  0  0  0
   -5.7388   -7.6622  -17.8248 C   0  0  0  0  0  0
   -7.2541   -9.0860  -16.0212 C   0  0  0  0  0  0
   -5.9724   -9.5619  -16.3497 C   0  0  0  0  0  0
   -7.7559   -7.9016  -16.6052 C   0  0  0  0  0  0
   -6.9674   -7.1967  -17.4737 N   0  3  0  0  0  0
   -5.3979  -10.6857  -15.8250 O   0  0  0  0  0  0
   -4.0265   -9.3681  -17.6841 O   0  5  0  0  0  0
   -9.1612   -7.4593  -16.2127 C   0  0  0  0  0  0
   -9.3707   -7.4352  -14.8146 O   0  0  0  0  0  0
   -7.3689   -5.8737  -18.0248 C   0  0  0  0  0  0
   -8.1790   -5.9770  -19.3337 C   0  0  0  0  0  0
   -8.6533   -4.6133  -19.8969 C   0  0  0  0  0  0
   -7.6359   -3.4844  -19.7779 C   0  0  0  0  0  0
   -7.9335   -2.3368  -19.0174 C   0  0  0  0  0  0
   -6.9726   -1.3260  -18.8164 C   0  0  0  0  0  0
   -5.7090   -1.4356  -19.4231 C   0  0  0  0  0  0
   -5.4191   -2.5564  -20.2246 C   0  0  0  0  0  0
   -6.3795   -3.5717  -20.4037 C   0  0  0  0  0  0
   -5.1861   -7.0670  -18.5336 H   0  0  0  0  0  0
   -7.8890   -9.6114  -15.3303 H   0  0  0  0  0  0
   -4.7009  -10.8252  -16.4717 H   0  0  0  0  0  0
   -9.4622   -6.4963  -16.6150 H   0  0  0  0  0  0
   -9.8416   -8.2057  -16.6220 H   0  0  0  0  0  0
   -8.8410   -6.7553  -14.4197 H   0  0  0  0  0  0
   -6.4542   -5.3209  -18.2232 H   0  0  0  0  0  0
   -7.8765   -5.3010  -17.2513 H   0  0  0  0  0  0
   -9.0429   -6.6294  -19.2004 H   0  0  0  0  0  0
   -7.5511   -6.4604  -20.0825 H   0  0  0  0  0  0
   -9.5657   -4.3091  -19.3804 H   0  0  0  0  0  0
   -8.9288   -4.7232  -20.9461 H   0  0  0  0  0  0
   -8.8981   -2.2418  -18.5490 H   0  0  0  0  0  0
   -7.2090   -0.4674  -18.2041 H   0  0  0  0  0  0
   -4.9696   -0.6600  -19.2807 H   0  0  0  0  0  0
   -4.4539   -2.6479  -20.7000 H   0  0  0  0  0  0
   -6.1359   -4.4307  -21.0096 H   0  0  0  0  0  0
  1  2  2  0  0  0
  1  8  1  0  0  0
  1  4  1  0  0  0
  2  6  1  0  0  0
  2 20  1  0  0  0
  3 21  1  0  0  0
  3  5  1  0  0  0
  3  4  2  0  0  0
  4  7  1  0  0  0
  5  9  1  0  0  0
  5  6  2  0  0  0
  6 11  1  0  0  0
  7 22  1  0  0  0
  9 10  1  0  0  0
  9 23  1  0  0  0
  9 24  1  0  0  0
 10 25  1  0  0  0
 11 12  1  0  0  0
 11 26  1  0  0  0
 11 27  1  0  0  0
 12 13  1  0  0  0
 12 28  1  0  0  0
 12 29  1  0  0  0
 13 14  1  0  0  0
 13 30  1  0  0  0
 13 31  1  0  0  0
 14 15  2  0  0  0
 14 19  1  0  0  0
 15 16  1  0  0  0
 15 32  1  0  0  0
 16 17  2  0  0  0
 16 33  1  0  0  0
 17 18  1  0  0  0
 17 34  1  0  0  0
 18 19  2  0  0  0
 18 35  1  0  0  0
 19 36  1  0  0  0
M  CHG  2   6   1   8  -1
M  END
> <s_m_entry_id>
19

> <s_m_entry_name>
glide-dock_SP_comt_chembl_pv.18

> <s_m_Source_Path>
/home/csk/Desktop/cluster/DUD-E-result/comt/glide-dock_SP_comt_chembl

> <s_m_Source_File>
glide-dock_SP_comt_chembl_pv.maegz

> <i_m_Source_File_Index>
18

> <chembl_id>
CHEMBL3425513

> <chembl_pref_name>
None

> <i_lp_mmshare_version>
53161

> <i_f3d_flags>
0

> <r_lp_tautomer_probability>
0.995892618013405

> <s_lp_Force_Field>
OPLS_2005

> <r_lp_Energy>
8.547742

> <b_lp_Chiralities_Consistent>
1

> <s_lp_Variant>
CHEMBL2023_lig27-1

> <s_i_glide_gridfile>
glide-grid_3bwm

> <i_i_glide_lignum>
36

> <i_i_glide_rotatable_bonds>
7

> <r_i_docking_score>
-9.04981288918958

> <r_i_glide_ligand_efficiency>
-0.476305941536294

> <r_i_glide_ligand_efficiency_sa>
-1.27097555844407

> <r_i_glide_ligand_efficiency_ln>
-2.29432193956821

> <r_i_glide_gscore>
-9.04981288918958

> <r_i_glide_lipo>
-2.58132888695032

> <r_i_glide_hbond>
0

> <r_i_glide_metal>
-2.3

> <r_i_glide_rewards>
-1.94113377272727

> <r_i_glide_evdw>
-27.5481224060059

> <r_i_glide_ecoul>
-12.6788120269775

> <r_i_glide_erotb>
1.05187769483494

> <r_i_glide_esite>
0

> <r_i_glide_emodel>
-81.8356929285282

> <r_i_glide_energy>
-40.2269344329834

> <r_i_glide_einternal>
4.5977931022644

> <i_i_glide_confnum>
3

> <i_i_glide_posenum>
199

> <r_i_glide_eff_state_penalty>
0

> <s_user_duplicate_titles>
CHEMBL2023_lig27,CHEMBL2023_lig27,CHEMBL2023_lig27,CHEMBL2023_lig27

> <s_m_subgroup_title>
glide-dock_SP_comt_chembl_pv

> <s_m_subgroupid>
glide-dock_SP_comt_chembl_pv

> <b_m_subgroup_collapsed>
1

$$$$
CHEMBL2023_lig53
                    3D
 Schrodinger Suite 2021-1.
 34 36  0  0  1  0            999 V2000
   -2.3172  -13.1528  -20.8825 O   0  0  0  0  0  0
   -2.9318  -11.8725  -20.4993 S   0  0  0  0  0  0
   -2.1117  -10.6480  -20.4959 O   0  0  0  0  0  0
   -4.1954  -13.6062  -17.0229 C   0  0  0  0  0  0
   -3.6613  -13.3758  -18.3031 C   0  0  0  0  0  0
   -3.6604  -12.0773  -18.8548 C   0  0  0  0  0  0
   -4.7181  -12.5390  -16.2690 C   0  0  0  0  0  0
   -4.7285  -11.2391  -16.8031 C   0  0  0  0  0  0
   -4.2160  -11.0016  -18.1120 C   0  0  0  0  0  0
   -4.3057   -9.6857  -18.6202 C   0  0  0  0  0  0
   -4.9031   -8.6896  -17.8314 C   0  0  0  0  0  0
   -5.3846   -9.0372  -16.5625 C   0  0  0  0  0  0
   -5.2540  -10.2667  -16.0251 N   0  0  0  0  0  0
   -5.2538  -12.7620  -15.0230 O   0  0  0  0  0  0
   -4.3123  -11.6372  -21.6109 C   0  0  0  0  0  0
   -5.2135  -12.7006  -21.8167 C   0  0  0  0  0  0
   -6.2675  -12.5519  -22.7388 C   0  0  0  0  0  0
   -6.4164  -11.3438  -23.4534 C   0  0  0  0  0  0
   -5.5070  -10.2848  -23.2445 C   0  0  0  0  0  0
   -4.4541  -10.4273  -22.3197 C   0  0  0  0  0  0
   -7.5590  -11.1727  -24.4325 C   0  0  0  0  0  0
   -4.2142  -14.6101  -16.6215 H   0  0  0  0  0  0
   -3.2540  -14.2083  -18.8585 H   0  0  0  0  0  0
   -3.9658   -9.4189  -19.6069 H   0  0  0  0  0  0
   -5.0177   -7.6792  -18.1981 H   0  0  0  0  0  0
   -5.8775   -8.2964  -15.9545 H   0  0  0  0  0  0
   -5.6734  -13.6298  -15.0193 H   0  0  0  0  0  0
   -5.0890  -13.6295  -21.2799 H   0  0  0  0  0  0
   -6.9588  -13.3663  -22.8967 H   0  0  0  0  0  0
   -5.6183   -9.3578  -23.7881 H   0  0  0  0  0  0
   -3.7565   -9.6161  -22.1723 H   0  0  0  0  0  0
   -8.3801  -10.6343  -23.9584 H   0  0  0  0  0  0
   -7.9325  -12.1379  -24.7752 H   0  0  0  0  0  0
   -7.2361  -10.6067  -25.3068 H   0  0  0  0  0  0
  1  2  2  0  0  0
  2  3  2  0  0  0
  2  6  1  0  0  0
  2 15  1  0  0  0
  4  5  2  0  0  0
  4  7  1  0  0  0
  4 22  1  0  0  0
  5  6  1  0  0  0
  5 23  1  0  0  0
  6  9  2  0  0  0
  7  8  2  0  0  0
  7 14  1  0  0  0
  8  9  1  0  0  0
  8 13  1  0  0  0
  9 10  1  0  0  0
 10 11  2  0  0  0
 10 24  1  0  0  0
 11 12  1  0  0  0
 11 25  1  0  0  0
 12 13  2  0  0  0
 12 26  1  0  0  0
 14 27  1  0  0  0
 15 16  2  0  0  0
 15 20  1  0  0  0
 16 17  1  0  0  0
 16 28  1  0  0  0
 17 18  2  0  0  0
 17 29  1  0  0  0
 18 19  1  0  0  0
 18 21  1  0  0  0
 19 20  2  0  0  0
 19 30  1  0  0  0
 20 31  1  0  0  0
 21 32  1  0  0  0
 21 33  1  0  0  0
 21 34  1  0  0  0
M  END
> <s_m_entry_id>
22

> <s_m_entry_name>
glide-dock_SP_comt_chembl_pv.21

> <s_m_Source_Path>
/home/csk/Desktop/cluster/DUD-E-result/comt/glide-dock_SP_comt_chembl

> <s_m_Source_File>
glide-dock_SP_comt_chembl_pv.maegz

> <i_m_Source_File_Index>
21

> <chembl_id>
CHEMBL4174102

> <chembl_pref_name>
None

> <i_lp_mmshare_version>
53161

> <i_f3d_flags>
0

> <r_lp_tautomer_probability>
1

> <s_lp_Force_Field>
OPLS_2005

> <r_lp_Energy>
18.661301

> <b_lp_Chiralities_Consistent>
1

> <s_lp_Variant>
CHEMBL2023_lig53-1

> <s_i_glide_gridfile>
glide-grid_3bwm

> <i_i_glide_lignum>
73

> <i_i_glide_rotatable_bonds>
3

> <r_i_docking_score>
-8.99561699287245

> <r_i_glide_ligand_efficiency>
-0.428362713946307

> <r_i_glide_ligand_efficiency_sa>
-1.18182024656734

> <r_i_glide_ligand_efficiency_ln>
-2.22414812413203

> <r_i_glide_gscore>
-8.99561699287245

> <r_i_glide_lipo>
-0.785225600345226

> <r_i_glide_hbond>
-0.425248986074708

> <r_i_glide_metal>
-2.3

> <r_i_glide_rewards>
-1.43339579707787

> <r_i_glide_evdw>
-24.8231048583984

> <r_i_glide_ecoul>
-21.2658882141113

> <r_i_glide_erotb>
0.409897253243711

> <r_i_glide_esite>
-0.0306053875817385

> <r_i_glide_emodel>
-80.2249409926924

> <r_i_glide_energy>
-46.0889930725098

> <r_i_glide_einternal>
1.26570320129395

> <i_i_glide_confnum>
6

> <i_i_glide_posenum>
386

> <r_i_glide_eff_state_penalty>
0

> <s_user_duplicate_titles>
CHEMBL2023_lig53,CHEMBL2023_lig53,CHEMBL2023_lig53,CHEMBL2023_lig53,CHEMBL2023_lig53

> <s_m_subgroup_title>
glide-dock_SP_comt_chembl_pv

> <s_m_subgroupid>
glide-dock_SP_comt_chembl_pv

> <b_m_subgroup_collapsed>
1

$$$$
CHEMBL2023_lig71
                    3D
 Schrodinger Suite 2021-1.
 34 36  0  0  1  0            999 V2000
   -2.2610  -12.3179  -20.9149 O   0  0  0  0  0  0
   -2.9918  -11.1484  -20.4034 S   0  0  0  0  0  0
   -2.2624   -9.8859  -20.2236 O   0  0  0  0  0  0
   -4.1450  -13.3843  -17.2323 C   0  0  0  0  0  0
   -3.6308  -12.9546  -18.4582 C   0  0  0  0  0  0
   -3.7012  -11.6007  -18.8148 C   0  0  0  0  0  0
   -4.7378  -12.4778  -16.3336 C   0  0  0  0  0  0
   -4.8544  -11.1270  -16.6951 C   0  0  0  0  0  0
   -4.3458  -10.6788  -17.9476 C   0  0  0  0  0  0
   -4.5453   -9.3211  -18.2795 C   0  0  0  0  0  0
   -5.3174   -8.5186  -17.4253 C   0  0  0  0  0  0
   -5.8054   -9.0786  -16.2346 C   0  0  0  0  0  0
   -5.4924  -10.3141  -15.8232 N   0  0  0  0  0  0
   -5.2541  -12.8991  -15.1302 O   0  0  0  0  0  0
   -4.4528  -10.8681  -21.5052 C   0  0  0  0  0  0
   -4.0540  -14.6859  -16.9347 F   0  0  0  0  0  0
   -4.0312  -10.2772  -22.8516 C   0  0  0  0  0  0
   -3.6340  -11.4794  -23.7119 C   0  0  0  0  0  0
   -4.4344  -12.6739  -23.1687 C   0  0  0  0  0  0
   -5.1308  -12.1915  -21.8878 C   0  0  0  0  0  0
   -3.1709  -13.6793  -19.1139 H   0  0  0  0  0  0
   -4.1799   -8.8919  -19.1968 H   0  0  0  0  0  0
   -5.5470   -7.4918  -17.6752 H   0  0  0  0  0  0
   -6.4334   -8.5073  -15.5682 H   0  0  0  0  0  0
   -5.6712  -13.7637  -15.2487 H   0  0  0  0  0  0
   -5.1363  -10.2008  -20.9844 H   0  0  0  0  0  0
   -3.2320   -9.5405  -22.7632 H   0  0  0  0  0  0
   -4.8863   -9.7734  -23.3052 H   0  0  0  0  0  0
   -2.5662  -11.6710  -23.6010 H   0  0  0  0  0  0
   -3.8247  -11.2993  -24.7704 H   0  0  0  0  0  0
   -3.7639  -13.5066  -22.9537 H   0  0  0  0  0  0
   -5.1647  -13.0298  -23.8955 H   0  0  0  0  0  0
   -6.1841  -12.0066  -22.1019 H   0  0  0  0  0  0
   -5.0922  -12.9357  -21.0909 H   0  0  0  0  0  0
  1  2  2  0  0  0
  2  3  2  0  0  0
  2  6  1  0  0  0
  2 15  1  0  0  0
  4  5  2  0  0  0
  4  7  1  0  0  0
  4 16  1  0  0  0
  5  6  1  0  0  0
  5 21  1  0  0  0
  6  9  2  0  0  0
  7  8  2  0  0  0
  7 14  1  0  0  0
  8  9  1  0  0  0
  8 13  1  0  0  0
  9 10  1  0  0  0
 10 11  2  0  0  0
 10 22  1  0  0  0
 11 12  1  0  0  0
 11 23  1  0  0  0
 12 13  2  0  0  0
 12 24  1  0  0  0
 14 25  1  0  0  0
 15 17  1  0  0  0
 15 20  1  0  0  0
 15 26  1  0  0  0
 17 18  1  0  0  0
 17 27  1  0  0  0
 17 28  1  0  0  0
 18 19  1  0  0  0
 18 29  1  0  0  0
 18 30  1  0  0  0
 19 20  1  0  0  0
 19 31  1  0  0  0
 19 32  1  0  0  0
 20 33  1  0  0  0
 20 34  1  0  0  0
M  END
> <s_m_entry_id>
23

> <s_m_entry_name>
glide-dock_SP_comt_chembl_pv.22

> <s_m_Source_Path>
/home/csk/Desktop/cluster/DUD-E-result/comt/glide-dock_SP_comt_chembl

> <s_m_Source_File>
glide-dock_SP_comt_chembl_pv.maegz

> <i_m_Source_File_Index>
22

> <chembl_id>
CHEMBL4167128

> <chembl_pref_name>
None

> <i_lp_mmshare_version>
53161

> <i_f3d_flags>
0

> <r_lp_tautomer_probability>
1

> <s_lp_Force_Field>
OPLS_2005

> <r_lp_Energy>
21.778503

> <b_lp_Chiralities_Consistent>
1

> <s_lp_Variant>
CHEMBL2023_lig71-1

> <s_i_glide_gridfile>
glide-grid_3bwm

> <i_i_glide_lignum>
93

> <i_i_glide_rotatable_bonds>
3

> <r_i_docking_score>
-8.99135676786103

> <r_i_glide_ligand_efficiency>
-0.449567838393051

> <r_i_glide_ligand_efficiency_sa>
-1.22031485917001

> <r_i_glide_ligand_efficiency_ln>
-2.25024004420188

> <r_i_glide_gscore>
-8.99135676786103

> <r_i_glide_lipo>
-0.500697618002228

> <r_i_glide_hbond>
-0.414626313927718

> <r_i_glide_metal>
-2.3

> <r_i_glide_rewards>
-1.39547547954545

> <r_i_glide_evdw>
-18.1517200469971

> <r_i_glide_ecoul>
-25.1172962188721

> <r_i_glide_erotb>
0.41968946381447

> <r_i_glide_esite>
-0.125066385019437

> <r_i_glide_emodel>
-73.3029550542546

> <r_i_glide_energy>
-43.2690162658691

> <r_i_glide_einternal>
3.22282958030701

> <i_i_glide_confnum>
12

> <i_i_glide_posenum>
41

> <r_i_glide_eff_state_penalty>
0

> <s_user_duplicate_titles>
CHEMBL2023_lig71,CHEMBL2023_lig71,CHEMBL2023_lig71,CHEMBL2023_lig71,CHEMBL2023_lig71

> <s_m_subgroup_title>
glide-dock_SP_comt_chembl_pv

> <s_m_subgroupid>
glide-dock_SP_comt_chembl_pv

> <b_m_subgroup_collapsed>
1

$$$$
CHEMBL2023_lig54
                    3D
 Schrodinger Suite 2021-1.
 31 33  0  0  1  0            999 V2000
   -4.2115  -13.6216  -17.0279 C   0  0  0  0  0  0
   -3.7554  -13.3831  -18.3348 C   0  0  0  0  0  0
   -3.8242  -12.0945  -18.9036 C   0  0  0  0  0  0
   -4.7260  -12.5642  -16.2595 C   0  0  0  0  0  0
   -4.7612  -11.2603  -16.7756 C   0  0  0  0  0  0
   -4.3241  -11.0290  -18.1091 C   0  0  0  0  0  0
   -4.4540   -9.7200  -18.6230 C   0  0  0  0  0  0
   -5.0209   -8.7220  -17.8153 C   0  0  0  0  0  0
   -5.4274   -9.0649  -16.5176 C   0  0  0  0  0  0
   -5.2540  -10.2860  -15.9753 N   0  0  0  0  0  0
   -5.2540  -12.8100  -15.0230 O   0  0  0  0  0  0
   -3.4244  -11.9235  -20.3122 C   0  0  0  0  0  0
   -2.3473  -11.0860  -20.6739 C   0  0  0  0  0  0
   -1.9769  -10.9274  -22.0228 C   0  0  0  0  0  0
   -2.6854  -11.6059  -23.0334 C   0  0  0  0  0  0
   -3.7614  -12.4461  -22.6839 C   0  0  0  0  0  0
   -4.1245  -12.6030  -21.3324 C   0  0  0  0  0  0
   -2.2854  -11.4309  -24.4838 C   0  0  0  0  0  0
   -4.2046  -14.6270  -16.6303 H   0  0  0  0  0  0
   -3.3821  -14.2101  -18.9217 H   0  0  0  0  0  0
   -4.1710   -9.4786  -19.6357 H   0  0  0  0  0  0
   -5.1710   -7.7182  -18.1872 H   0  0  0  0  0  0
   -5.8999   -8.3309  -15.8873 H   0  0  0  0  0  0
   -5.6876  -13.6712  -15.0474 H   0  0  0  0  0  0
   -1.7968  -10.5624  -19.9074 H   0  0  0  0  0  0
   -1.1466  -10.2859  -22.2806 H   0  0  0  0  0  0
   -4.3130  -12.9728  -23.4488 H   0  0  0  0  0  0
   -4.9549  -13.2454  -21.0782 H   0  0  0  0  0  0
   -2.9942  -11.9177  -25.1543 H   0  0  0  0  0  0
   -1.2994  -11.8625  -24.6575 H   0  0  0  0  0  0
   -2.2478  -10.3722  -24.7419 H   0  0  0  0  0  0
  1  2  2  0  0  0
  1  4  1  0  0  0
  1 19  1  0  0  0
  2  3  1  0  0  0
  2 20  1  0  0  0
  3  6  2  0  0  0
  3 12  1  0  0  0
  4  5  2  0  0  0
  4 11  1  0  0  0
  5  6  1  0  0  0
  5 10  1  0  0  0
  6  7  1  0  0  0
  7  8  2  0  0  0
  7 21  1  0  0  0
  8  9  1  0  0  0
  8 22  1  0  0  0
  9 10  2  0  0  0
  9 23  1  0  0  0
 11 24  1  0  0  0
 12 13  2  0  0  0
 12 17  1  0  0  0
 13 14  1  0  0  0
 13 25  1  0  0  0
 14 15  2  0  0  0
 14 26  1  0  0  0
 15 16  1  0  0  0
 15 18  1  0  0  0
 16 17  2  0  0  0
 16 27  1  0  0  0
 17 28  1  0  0  0
 18 29  1  0  0  0
 18 30  1  0  0  0
 18 31  1  0  0  0
M  END
> <s_m_entry_id>
24

> <s_m_entry_name>
glide-dock_SP_comt_chembl_pv.23

> <s_m_Source_Path>
/home/csk/Desktop/cluster/DUD-E-result/comt/glide-dock_SP_comt_chembl

> <s_m_Source_File>
glide-dock_SP_comt_chembl_pv.maegz

> <i_m_Source_File_Index>
23

> <chembl_id>
CHEMBL4175239

> <chembl_pref_name>
None

> <i_lp_mmshare_version>
53161

> <i_f3d_flags>
0

> <r_lp_tautomer_probability>
1

> <s_lp_Force_Field>
OPLS_2005

> <r_lp_Energy>
20.040847

> <b_lp_Chiralities_Consistent>
1

> <s_lp_Variant>
CHEMBL2023_lig54-1

> <s_i_glide_gridfile>
glide-grid_3bwm

> <i_i_glide_lignum>
74

> <i_i_glide_rotatable_bonds>
2

> <r_i_docking_score>
-8.98129712500053

> <r_i_glide_ligand_efficiency>
-0.498960951388918

> <r_i_glide_ligand_efficiency_sa>
-1.30764761813893

> <r_i_glide_ligand_efficiency_ln>
-2.30859611469559

> <r_i_glide_gscore>
-8.98129712500053

> <r_i_glide_lipo>
-0.663046012589485

> <r_i_glide_hbond>
-0.442411865918216

> <r_i_glide_metal>
-2.3

> <r_i_glide_rewards>
-1.89042146447208

> <r_i_glide_evdw>
-19.4860687255859

> <r_i_glide_ecoul>
-20.1446208953857

> <r_i_glide_erotb>
0.310578788566406

> <r_i_glide_esite>
0

> <r_i_glide_emodel>
-70.2771805969347

> <r_i_glide_energy>
-39.6306896209717

> <r_i_glide_einternal>
1.39874279499054

> <i_i_glide_confnum>
1

> <i_i_glide_posenum>
53

> <r_i_glide_eff_state_penalty>
0

> <s_user_duplicate_titles>
CHEMBL2023_lig54,CHEMBL2023_lig54,CHEMBL2023_lig54,CHEMBL2023_lig54,CHEMBL2023_lig54

> <s_m_subgroup_title>
glide-dock_SP_comt_chembl_pv

> <s_m_subgroupid>
glide-dock_SP_comt_chembl_pv

> <b_m_subgroup_collapsed>
1

$$$$
CHEMBL2023_lig111 
                    3D
 Schrodinger Suite 2021-1.
 29 30  0  0  1  0            999 V2000
   -8.4284   -6.1554  -18.9358 C   0  0  0  0  0  0
   -6.1924   -2.6000  -19.8020 N   0  3  0  0  0  0
   -6.3270   -4.9405  -19.0230 C   0  0  0  0  0  0
  -10.4083   -5.0860  -19.8230 O   0  0  0  0  0  0
   -6.9513   -3.8456  -19.6267 C   0  0  0  0  0  0
   -6.2277   -7.2337  -18.2107 C   0  0  0  0  0  0
   -8.3002   -3.9744  -20.0078 C   0  0  0  0  0  0
   -5.0441   -2.6791  -20.2228 O   0  0  0  0  0  0
   -8.8529   -8.1004  -16.1686 N   0  0  0  0  0  0
   -7.0326   -6.1133  -18.7111 C   0  0  0  0  0  0
   -8.8540   -3.0860  -20.8673 O   0  0  0  0  0  0
   -9.0628   -5.0776  -19.5853 C   0  0  0  0  0  0
   -7.8358   -8.1805  -16.7141 C   0  0  0  0  0  0
   -6.5671   -8.2258  -17.3706 C   0  0  0  0  0  0
   -6.7140   -1.5565  -19.4228 O   0  5  0  0  0  0
   -5.6423   -9.3539  -17.1048 C   0  0  0  0  0  0
   -6.0265  -10.3804  -16.2230 C   0  0  0  0  0  0
   -5.2541  -11.4650  -15.9510 N   0  0  0  0  0  0
   -4.1094  -11.5631  -16.6627 C   0  0  0  0  0  0
   -3.7112  -10.5547  -17.5640 C   0  0  0  0  0  0
   -4.4526   -9.4393  -17.7556 N   0  0  0  0  0  0
   -9.0091   -7.0290  -18.6853 H   0  0  0  0  0  0
   -5.2689   -4.8834  -18.8183 H   0  0  0  0  0  0
  -10.7986   -4.2464  -19.5847 H   0  0  0  0  0  0
   -5.2326   -7.2599  -18.6216 H   0  0  0  0  0  0
   -9.7409   -2.7875  -20.6230 H   0  0  0  0  0  0
   -7.0236  -10.3789  -15.8230 H   0  0  0  0  0  0
   -3.4990  -12.4393  -16.5000 H   0  0  0  0  0  0
   -2.7849  -10.6337  -18.1131 H   0  0  0  0  0  0
  1 10  2  0  0  0
  1 12  1  0  0  0
  1 22  1  0  0  0
  2  8  2  0  0  0
  2 15  1  0  0  0
  2  5  1  0  0  0
  3 10  1  0  0  0
  3  5  2  0  0  0
  3 23  1  0  0  0
  4 12  1  0  0  0
  4 24  1  0  0  0
  5  7  1  0  0  0
  6 14  2  0  0  0
  6 10  1  0  0  0
  6 25  1  0  0  0
  7 12  2  0  0  0
  7 11  1  0  0  0
  9 13  3  0  0  0
 11 26  1  0  0  0
 13 14  1  0  0  0
 14 16  1  0  0  0
 16 17  2  0  0  0
 16 21  1  0  0  0
 17 18  1  0  0  0
 17 27  1  0  0  0
 18 19  2  0  0  0
 19 20  1  0  0  0
 19 28  1  0  0  0
 20 21  2  0  0  0
 20 29  1  0  0  0
M  CHG  2   2   1  15  -1
M  END
> <s_m_entry_id>
27

> <s_m_entry_name>
glide-dock_SP_comt_chembl_pv.26

> <s_m_Source_Path>
/home/csk/Desktop/cluster/DUD-E-result/comt/glide-dock_SP_comt_chembl

> <s_m_Source_File>
glide-dock_SP_comt_chembl_pv.maegz

> <i_m_Source_File_Index>
26

> <chembl_id>
CHEMBL4448030

> <chembl_pref_name>
None

> <i_lp_mmshare_version>
53161

> <i_f3d_flags>
0

> <r_lp_tautomer_probability>
1

> <s_lp_Force_Field>
OPLS_2005

> <r_lp_Energy>
24.073974

> <b_lp_Chiralities_Consistent>
1

> <s_lp_Variant>
CHEMBL2023_lig111 -1

> <s_i_glide_gridfile>
glide-grid_3bwm

> <i_i_glide_lignum>
133

> <i_i_glide_rotatable_bonds>
5

> <r_i_docking_score>
-8.96044433235794

> <r_i_glide_ligand_efficiency>
-0.426687825350378

> <r_i_glide_ligand_efficiency_sa>
-1.17719935593197

> <r_i_glide_ligand_efficiency_ln>
-2.21545175489287

> <r_i_glide_gscore>
-8.96044433235794

> <r_i_glide_lipo>
-1.55093188201335

> <r_i_glide_hbond>
0

> <r_i_glide_metal>
-2.3

> <r_i_glide_rewards>
-1.47117940909091

> <r_i_glide_evdw>
-30.510046005249

> <r_i_glide_ecoul>
-17.0767803192139

> <r_i_glide_erotb>
0.448686306890847

> <r_i_glide_esite>
0

> <r_i_glide_emodel>
-79.4271882567647

> <r_i_glide_energy>
-47.5868263244629

> <r_i_glide_einternal>
3.48591423034668

> <i_i_glide_confnum>
4

> <i_i_glide_posenum>
126

> <r_i_glide_eff_state_penalty>
0

> <s_user_duplicate_titles>
CHEMBL2023_lig111 ,CHEMBL2023_lig111 ,CHEMBL2023_lig111 ,CHEMBL2023_lig111 ,CHEMBL2023_lig111 

> <s_m_subgroup_title>
glide-dock_SP_comt_chembl_pv

> <s_m_subgroupid>
glide-dock_SP_comt_chembl_pv

> <b_m_subgroup_collapsed>
1

$$$$
CHEMBL2023_lig72
                    3D
 Schrodinger Suite 2021-1.
 34 36  0  0  1  0            999 V2000
   -2.2427  -11.8425  -21.4311 O   0  0  0  0  0  0
   -3.0732  -10.7847  -20.8353 S   0  0  0  0  0  0
   -2.4544   -9.4860  -20.5646 O   0  0  0  0  0  0
   -4.0011  -13.3698  -17.9082 C   0  0  0  0  0  0
   -3.6098  -12.7838  -19.1071 C   0  0  0  0  0  0
   -3.7062  -11.4020  -19.2764 C   0  0  0  0  0  0
   -4.5015  -12.5837  -16.8477 C   0  0  0  0  0  0
   -4.6832  -11.1965  -17.0223 C   0  0  0  0  0  0
   -4.2777  -10.5987  -18.2511 C   0  0  0  0  0  0
   -4.4819   -9.2118  -18.3949 C   0  0  0  0  0  0
   -5.1356   -8.4983  -17.3806 C   0  0  0  0  0  0
   -5.5274   -9.1843  -16.2230 C   0  0  0  0  0  0
   -5.2540  -10.4860  -16.0092 N   0  0  0  0  0  0
   -4.8540  -13.1448  -15.6502 O   0  0  0  0  0  0
   -4.5542  -10.5308  -21.9120 C   0  0  0  0  0  0
   -3.8217  -15.0652  -17.8230 Cl  0  0  0  0  0  0
   -4.1641   -9.8883  -23.2449 C   0  0  0  0  0  0
   -3.7554  -11.0523  -24.1528 C   0  0  0  0  0  0
   -4.4840  -12.2941  -23.6151 C   0  0  0  0  0  0
   -5.1977  -11.8597  -22.3277 C   0  0  0  0  0  0
   -3.2089  -13.4125  -19.8890 H   0  0  0  0  0  0
   -4.1913   -8.6858  -19.2830 H   0  0  0  0  0  0
   -5.3449   -7.4423  -17.4827 H   0  0  0  0  0  0
   -6.0547   -8.6855  -15.4255 H   0  0  0  0  0  0
   -5.3937  -13.9409  -15.7722 H   0  0  0  0  0  0
   -5.2524   -9.8993  -21.3643 H   0  0  0  0  0  0
   -3.3787   -9.1386  -23.1432 H   0  0  0  0  0  0
   -5.0351   -9.3877  -23.6702 H   0  0  0  0  0  0
   -2.6770  -11.2064  -24.0949 H   0  0  0  0  0  0
   -3.9974  -10.8529  -25.1972 H   0  0  0  0  0  0
   -3.7649  -13.0873  -23.4066 H   0  0  0  0  0  0
   -5.1964  -12.6870  -24.3413 H   0  0  0  0  0  0
   -6.2525  -11.6890  -22.5474 H   0  0  0  0  0  0
   -5.1546  -12.6202  -21.5484 H   0  0  0  0  0  0
  1  2  2  0  0  0
  2  3  2  0  0  0
  2  6  1  0  0  0
  2 15  1  0  0  0
  4  5  2  0  0  0
  4  7  1  0  0  0
  4 16  1  0  0  0
  5  6  1  0  0  0
  5 21  1  0  0  0
  6  9  2  0  0  0
  7  8  2  0  0  0
  7 14  1  0  0  0
  8  9  1  0  0  0
  8 13  1  0  0  0
  9 10  1  0  0  0
 10 11  2  0  0  0
 10 22  1  0  0  0
 11 12  1  0  0  0
 11 23  1  0  0  0
 12 13  2  0  0  0
 12 24  1  0  0  0
 14 25  1  0  0  0
 15 17  1  0  0  0
 15 20  1  0  0  0
 15 26  1  0  0  0
 17 18  1  0  0  0
 17 27  1  0  0  0
 17 28  1  0  0  0
 18 19  1  0  0  0
 18 29  1  0  0  0
 18 30  1  0  0  0
 19 20  1  0  0  0
 19 31  1  0  0  0
 19 32  1  0  0  0
 20 33  1  0  0  0
 20 34  1  0  0  0
M  END
> <s_m_entry_id>
28

> <s_m_entry_name>
glide-dock_SP_comt_chembl_pv.27

> <s_m_Source_Path>
/home/csk/Desktop/cluster/DUD-E-result/comt/glide-dock_SP_comt_chembl

> <s_m_Source_File>
glide-dock_SP_comt_chembl_pv.maegz

> <i_m_Source_File_Index>
27

> <chembl_id>
CHEMBL4176008

> <chembl_pref_name>
None

> <i_lp_mmshare_version>
53161

> <i_f3d_flags>
0

> <r_lp_tautomer_probability>
1

> <s_lp_Force_Field>
OPLS_2005

> <r_lp_Energy>
21.432872

> <b_lp_Chiralities_Consistent>
1

> <s_lp_Variant>
CHEMBL2023_lig72-1

> <s_i_glide_gridfile>
glide-grid_3bwm

> <i_i_glide_lignum>
94

> <i_i_glide_rotatable_bonds>
3

> <r_i_docking_score>
-8.93079542044468

> <r_i_glide_ligand_efficiency>
-0.446539771022234

> <r_i_glide_ligand_efficiency_sa>
-1.21209541976264

> <r_i_glide_ligand_efficiency_ln>
-2.23508353639049

> <r_i_glide_gscore>
-8.93079542044468

> <r_i_glide_lipo>
-0.839030758205284

> <r_i_glide_hbond>
-0.357320389429436

> <r_i_glide_metal>
-2.3

> <r_i_glide_rewards>
-1.35828709090909

> <r_i_glide_evdw>
-13.5822277069092

> <r_i_glide_ecoul>
-24.7779140472412

> <r_i_glide_erotb>
0.381655404734118

> <r_i_glide_esite>
-0.06201409420335

> <r_i_glide_emodel>
-63.7708670474924

> <r_i_glide_energy>
-38.3601417541504

> <r_i_glide_einternal>
2.97699546813965

> <i_i_glide_confnum>
35

> <i_i_glide_posenum>
75

> <r_i_glide_eff_state_penalty>
0

> <s_user_duplicate_titles>
CHEMBL2023_lig72,CHEMBL2023_lig72,CHEMBL2023_lig72,CHEMBL2023_lig72,CHEMBL2023_lig72

> <s_m_subgroup_title>
glide-dock_SP_comt_chembl_pv

> <s_m_subgroupid>
glide-dock_SP_comt_chembl_pv

> <b_m_subgroup_collapsed>
1

$$$$
CHEMBL2023_lig63
                    3D
 Schrodinger Suite 2021-1.
 34 36  0  0  1  0            999 V2000
   -2.3251  -13.1350  -20.8889 O   0  0  0  0  0  0
   -2.9763  -11.8706  -20.5136 S   0  0  0  0  0  0
   -2.1956  -10.6210  -20.5356 O   0  0  0  0  0  0
   -4.1842  -13.6169  -17.0230 C   0  0  0  0  0  0
   -3.6603  -13.3790  -18.3061 C   0  0  0  0  0  0
   -3.6804  -12.0805  -18.8579 C   0  0  0  0  0  0
   -4.7129  -12.5561  -16.2643 C   0  0  0  0  0  0
   -4.7330  -11.2539  -16.7926 C   0  0  0  0  0  0
   -4.2409  -11.0115  -18.1085 C   0  0  0  0  0  0
   -4.3589   -9.6984  -18.6174 C   0  0  0  0  0  0
   -4.9614   -8.7103  -17.8230 C   0  0  0  0  0  0
   -5.4128   -9.0613  -16.5433 C   0  0  0  0  0  0
   -5.2540  -10.2860  -16.0054 N   0  0  0  0  0  0
   -5.2540  -12.7902  -15.0230 O   0  0  0  0  0  0
   -4.3777  -11.6954  -21.6128 C   0  0  0  0  0  0
   -4.5617  -10.5115  -22.3556 C   0  0  0  0  0  0
   -5.6364  -10.4199  -23.2641 C   0  0  0  0  0  0
   -6.5333  -11.5014  -23.4230 C   0  0  0  0  0  0
   -6.3290  -12.6860  -22.6805 C   0  0  0  0  0  0
   -5.2540  -12.7853  -21.7763 C   0  0  0  0  0  0
   -7.7099  -11.3981  -24.3823 C   0  0  0  0  0  0
   -7.3395  -11.8465  -25.5807 F   0  0  0  0  0  0
   -8.1173  -10.1343  -24.5008 F   0  0  0  0  0  0
   -8.7378  -12.1318  -23.9491 F   0  0  0  0  0  0
   -4.1934  -14.6218  -16.6241 H   0  0  0  0  0  0
   -3.2489  -14.2066  -18.8657 H   0  0  0  0  0  0
   -4.0413   -9.4290  -19.6109 H   0  0  0  0  0  0
   -5.0995   -7.7033  -18.1913 H   0  0  0  0  0  0
   -5.9077   -8.3313  -15.9251 H   0  0  0  0  0  0
   -5.6850  -13.6527  -15.0401 H   0  0  0  0  0  0
   -3.8807   -9.6805  -22.2439 H   0  0  0  0  0  0
   -5.7761   -9.5119  -23.8326 H   0  0  0  0  0  0
   -6.9998  -13.5216  -22.8061 H   0  0  0  0  0  0
   -5.0961  -13.6971  -21.2191 H   0  0  0  0  0  0
  1  2  2  0  0  0
  2  3  2  0  0  0
  2  6  1  0  0  0
  2 15  1  0  0  0
  4  5  2  0  0  0
  4  7  1  0  0  0
  4 25  1  0  0  0
  5  6  1  0  0  0
  5 26  1  0  0  0
  6  9  2  0  0  0
  7  8  2  0  0  0
  7 14  1  0  0  0
  8  9  1  0  0  0
  8 13  1  0  0  0
  9 10  1  0  0  0
 10 11  2  0  0  0
 10 27  1  0  0  0
 11 12  1  0  0  0
 11 28  1  0  0  0
 12 13  2  0  0  0
 12 29  1  0  0  0
 14 30  1  0  0  0
 15 16  2  0  0  0
 15 20  1  0  0  0
 16 17  1  0  0  0
 16 31  1  0  0  0
 17 18  2  0  0  0
 17 32  1  0  0  0
 18 19  1  0  0  0
 18 21  1  0  0  0
 19 20  2  0  0  0
 19 33  1  0  0  0
 20 34  1  0  0  0
 21 22  1  0  0  0
 21 23  1  0  0  0
 21 24  1  0  0  0
M  END
> <s_m_entry_id>
29

> <s_m_entry_name>
glide-dock_SP_comt_chembl_pv.28

> <s_m_Source_Path>
/home/csk/Desktop/cluster/DUD-E-result/comt/glide-dock_SP_comt_chembl

> <s_m_Source_File>
glide-dock_SP_comt_chembl_pv.maegz

> <i_m_Source_File_Index>
28

> <chembl_id>
CHEMBL4166574

> <chembl_pref_name>
None

> <i_lp_mmshare_version>
53161

> <i_f3d_flags>
0

> <r_lp_tautomer_probability>
1

> <s_lp_Force_Field>
OPLS_2005

> <r_lp_Energy>
16.235804

> <b_lp_Chiralities_Consistent>
1

> <s_lp_Variant>
CHEMBL2023_lig63-1

> <s_i_glide_gridfile>
glide-grid_3bwm

> <i_i_glide_lignum>
85

> <i_i_glide_rotatable_bonds>
4

> <r_i_docking_score>
-8.92927211682584

> <r_i_glide_ligand_efficiency>
-0.372053004867743

> <r_i_glide_ligand_efficiency_sa>
-1.07318657166728

> <r_i_glide_ligand_efficiency_ln>
-2.137184555155

> <r_i_glide_gscore>
-8.92927211682584

> <r_i_glide_lipo>
-0.752398117552828

> <r_i_glide_hbond>
-0.434091840841996

> <r_i_glide_metal>
-2.3

> <r_i_glide_rewards>
-1.05844668106061

> <r_i_glide_evdw>
-25.71994972229

> <r_i_glide_ecoul>
-22.3212776184082

> <r_i_glide_erotb>
0.305935712703937

> <r_i_glide_esite>
-0.0560820611986123

> <r_i_glide_emodel>
-82.1192367456434

> <r_i_glide_energy>
-48.0412273406982

> <r_i_glide_einternal>
2.44473123550415

> <i_i_glide_confnum>
8

> <i_i_glide_posenum>
310

> <r_i_glide_eff_state_penalty>
0

> <s_user_duplicate_titles>
CHEMBL2023_lig63,CHEMBL2023_lig63,CHEMBL2023_lig63,CHEMBL2023_lig63,CHEMBL2023_lig63

> <s_m_subgroup_title>
glide-dock_SP_comt_chembl_pv

> <s_m_subgroupid>
glide-dock_SP_comt_chembl_pv

> <b_m_subgroup_collapsed>
1

$$$$
CHEMBL2023_lig78
                    3D
 Schrodinger Suite 2021-1.
 34 36  0  0  1  0            999 V2000
   -3.1635  -15.2153  -19.9359 O   0  0  0  0  0  0
   -3.2311  -13.8204  -20.4025 S   0  0  0  0  0  0
   -2.0539  -13.1943  -21.0231 O   0  0  0  0  0  0
   -4.0659  -13.3755  -17.7703 C   0  0  0  0  0  0
   -3.7061  -12.7978  -19.0065 C   0  0  0  0  0  0
   -3.7213  -11.4018  -19.1695 C   0  0  0  0  0  0
   -4.5114  -12.5472  -16.7162 C   0  0  0  0  0  0
   -4.6703  -11.1599  -16.9141 C   0  0  0  0  0  0
   -4.2423  -10.5934  -18.1439 C   0  0  0  0  0  0
   -4.3978   -9.2117  -18.3517 C   0  0  0  0  0  0
   -5.0852   -8.4661  -17.3827 C   0  0  0  0  0  0
   -5.5277   -9.1241  -16.2232 C   0  0  0  0  0  0
   -5.2539  -10.4141  -15.9397 N   0  0  0  0  0  0
   -4.8543  -13.0861  -15.5060 O   0  0  0  0  0  0
   -4.5548  -13.7357  -21.6194 C   0  0  0  0  0  0
   -5.5450  -12.7299  -21.6021 C   0  0  0  0  0  0
   -6.5159  -12.6860  -22.6234 C   0  0  0  0  0  0
   -6.5006  -13.6375  -23.6633 C   0  0  0  0  0  0
   -5.5122  -14.6428  -23.6753 C   0  0  0  0  0  0
   -4.5383  -14.6860  -22.6581 C   0  0  0  0  0  0
   -7.5385  -13.5790  -24.7650 C   0  0  0  0  0  0
   -4.0147  -14.4466  -17.6319 H   0  0  0  0  0  0
   -3.4189  -10.9694  -20.1119 H   0  0  0  0  0  0
   -4.0548   -8.7444  -19.2635 H   0  0  0  0  0  0
   -5.2934   -7.4142  -17.5248 H   0  0  0  0  0  0
   -6.1083   -8.6249  -15.4667 H   0  0  0  0  0  0
   -5.4108  -13.8678  -15.6091 H   0  0  0  0  0  0
   -5.5846  -11.9862  -20.8242 H   0  0  0  0  0  0
   -7.2694  -11.9113  -22.6070 H   0  0  0  0  0  0
   -5.4898  -15.3757  -24.4686 H   0  0  0  0  0  0
   -3.7737  -15.4491  -22.6786 H   0  0  0  0  0  0
   -7.1237  -13.9374  -25.7082 H   0  0  0  0  0  0
   -7.8866  -12.5562  -24.9204 H   0  0  0  0  0  0
   -8.3949  -14.2024  -24.5087 H   0  0  0  0  0  0
  1  2  2  0  0  0
  2  3  2  0  0  0
  2  5  1  0  0  0
  2 15  1  0  0  0
  4  5  2  0  0  0
  4  7  1  0  0  0
  4 22  1  0  0  0
  5  6  1  0  0  0
  6  9  2  0  0  0
  6 23  1  0  0  0
  7  8  2  0  0  0
  7 14  1  0  0  0
  8  9  1  0  0  0
  8 13  1  0  0  0
  9 10  1  0  0  0
 10 11  2  0  0  0
 10 24  1  0  0  0
 11 12  1  0  0  0
 11 25  1  0  0  0
 12 13  2  0  0  0
 12 26  1  0  0  0
 14 27  1  0  0  0
 15 16  2  0  0  0
 15 20  1  0  0  0
 16 17  1  0  0  0
 16 28  1  0  0  0
 17 18  2  0  0  0
 17 29  1  0  0  0
 18 19  1  0  0  0
 18 21  1  0  0  0
 19 20  2  0  0  0
 19 30  1  0  0  0
 20 31  1  0  0  0
 21 32  1  0  0  0
 21 33  1  0  0  0
 21 34  1  0  0  0
M  END
> <s_m_entry_id>
30

> <s_m_entry_name>
glide-dock_SP_comt_chembl_pv.29

> <s_m_Source_Path>
/home/csk/Desktop/cluster/DUD-E-result/comt/glide-dock_SP_comt_chembl

> <s_m_Source_File>
glide-dock_SP_comt_chembl_pv.maegz

> <i_m_Source_File_Index>
29

> <chembl_id>
CHEMBL4171794

> <chembl_pref_name>
None

> <i_lp_mmshare_version>
53161

> <i_f3d_flags>
0

> <r_lp_tautomer_probability>
1

> <s_lp_Force_Field>
OPLS_2005

> <r_lp_Energy>
14.730375

> <b_lp_Chiralities_Consistent>
1

> <s_lp_Variant>
CHEMBL2023_lig78-1

> <s_i_glide_gridfile>
glide-grid_3bwm

> <i_i_glide_lignum>
100

> <i_i_glide_rotatable_bonds>
3

> <r_i_docking_score>
-8.88029756390159

> <r_i_glide_ligand_efficiency>
-0.422871312566742

> <r_i_glide_ligand_efficiency_sa>
-1.16666988655442

> <r_i_glide_ligand_efficiency_ln>
-2.19563562834383

> <r_i_glide_gscore>
-8.88029756390159

> <r_i_glide_lipo>
-0.723934614063674

> <r_i_glide_hbond>
-0.368799064978979

> <r_i_glide_metal>
-2.3

> <r_i_glide_rewards>
-1.44310009090909

> <r_i_glide_evdw>
-22.5896053314209

> <r_i_glide_ecoul>
-21.908130645752

> <r_i_glide_erotb>
0.409897253243711

> <r_i_glide_esite>
-0.038661183759719

> <r_i_glide_emodel>
-71.5888397152487

> <r_i_glide_energy>
-44.4977359771729

> <r_i_glide_einternal>
6.3693675994873

> <i_i_glide_confnum>
2

> <i_i_glide_posenum>
379

> <r_i_glide_eff_state_penalty>
0

> <s_user_duplicate_titles>
CHEMBL2023_lig78,CHEMBL2023_lig78,CHEMBL2023_lig78,CHEMBL2023_lig78,CHEMBL2023_lig78

> <s_m_subgroup_title>
glide-dock_SP_comt_chembl_pv

> <s_m_subgroupid>
glide-dock_SP_comt_chembl_pv

> <b_m_subgroup_collapsed>
1

$$$$
CHEMBL2023_lig6
                    3D
 Schrodinger Suite 2021-1.
 31 32  0  0  1  0            999 V2000
   -4.8120  -12.4247  -16.2725 C   0  0  0  0  0  0
   -4.4316  -13.3530  -17.2778 C   0  0  0  0  0  0
   -4.0540  -12.9025  -18.5697 C   0  0  0  0  0  0
   -4.1426  -11.5284  -18.8605 C   0  0  0  0  0  0
   -4.5342  -10.6211  -17.8602 C   0  0  0  0  0  0
   -4.7695  -11.0631  -16.5596 C   0  0  0  0  0  0
   -4.6389   -9.1928  -18.1538 C   0  0  0  0  0  0
   -5.8951   -8.4506  -17.7585 C   0  0  0  0  0  0
   -3.6707   -8.6860  -18.7033 O   0  0  0  0  0  0
   -5.2540  -12.7705  -15.0230 O   0  0  0  0  0  0
   -4.4540  -14.6860  -17.0230 O   0  0  0  0  0  0
   -3.6297  -13.8306  -19.6348 N   0  3  0  0  0  0
   -4.0520  -13.6203  -20.7670 O   0  5  0  0  0  0
   -2.8693  -14.7509  -19.3519 O   0  0  0  0  0  0
   -6.9485   -9.0574  -17.0231 C   0  0  0  0  0  0
   -8.0537   -8.3234  -16.5833 C   0  0  0  0  0  0
   -8.1650   -6.9695  -16.8968 C   0  0  0  0  0  0
   -7.1966   -6.3545  -17.7102 C   0  0  0  0  0  0
   -6.0539   -7.0860  -18.1015 C   0  0  0  0  0  0
   -9.2540   -6.1890  -16.2230 C   0  0  0  0  0  0
   -3.9112  -11.1719  -19.8550 H   0  0  0  0  0  0
   -5.0104  -10.3247  -15.8187 H   0  0  0  0  0  0
   -5.6538  -13.6459  -15.0537 H   0  0  0  0  0  0
   -5.2256  -14.9574  -16.5167 H   0  0  0  0  0  0
   -6.9626  -10.0876  -16.7249 H   0  0  0  0  0  0
   -8.7980   -8.7994  -15.9617 H   0  0  0  0  0  0
   -7.2692   -5.3021  -17.9423 H   0  0  0  0  0  0
   -5.2675   -6.5661  -18.6230 H   0  0  0  0  0  0
  -10.1047   -6.8222  -15.9961 H   0  0  0  0  0  0
   -8.8594   -5.8860  -15.2574 H   0  0  0  0  0  0
   -9.5712   -5.3272  -16.8100 H   0  0  0  0  0  0
  1 10  1  0  0  0
  1  6  1  0  0  0
  1  2  2  0  0  0
  2  3  1  0  0  0
  2 11  1  0  0  0
  3 12  1  0  0  0
  3  4  2  0  0  0
  4  5  1  0  0  0
  4 21  1  0  0  0
  5  6  2  0  0  0
  5  7  1  0  0  0
  6 22  1  0  0  0
  7  8  1  0  0  0
  7  9  2  0  0  0
  8 15  2  0  0  0
  8 19  1  0  0  0
 10 23  1  0  0  0
 11 24  1  0  0  0
 12 13  1  0  0  0
 12 14  2  0  0  0
 15 16  1  0  0  0
 15 25  1  0  0  0
 16 17  2  0  0  0
 16 26  1  0  0  0
 17 18  1  0  0  0
 17 20  1  0  0  0
 18 19  2  0  0  0
 18 27  1  0  0  0
 19 28  1  0  0  0
 20 29  1  0  0  0
 20 30  1  0  0  0
 20 31  1  0  0  0
M  CHG  2  12   1  13  -1
M  END
> <s_m_entry_id>
35

> <s_m_entry_name>
glide-dock_SP_comt_chembl_pv.34

> <s_m_Source_Path>
/home/csk/Desktop/cluster/DUD-E-result/comt/glide-dock_SP_comt_chembl

> <s_m_Source_File>
glide-dock_SP_comt_chembl_pv.maegz

> <i_m_Source_File_Index>
34

> <chembl_id>
CHEMBL1324

> <chembl_pref_name>
TOLCAPONE

> <i_lp_mmshare_version>
53161

> <i_f3d_flags>
0

> <r_lp_tautomer_probability>
1

> <s_lp_Force_Field>
OPLS_2005

> <r_lp_Energy>
21.724357

> <b_lp_Chiralities_Consistent>
1

> <s_lp_Variant>
CHEMBL2023_lig6-1

> <s_i_glide_gridfile>
glide-grid_3bwm

> <i_i_glide_lignum>
10

> <i_i_glide_rotatable_bonds>
5

> <r_i_docking_score>
-8.80809909920673

> <r_i_glide_ligand_efficiency>
-0.440404954960337

> <r_i_glide_ligand_efficiency_sa>
-1.19544296698628

> <r_i_glide_ligand_efficiency_ln>
-2.20437669398015

> <r_i_glide_gscore>
-8.80809909920673

> <r_i_glide_lipo>
-1.71466708700299

> <r_i_glide_hbond>
0

> <r_i_glide_metal>
-2.3

> <r_i_glide_rewards>
-1.54608518181818

> <r_i_glide_evdw>
-25.7957096099854

> <r_i_glide_ecoul>
-16.2535057067871

> <r_i_glide_erotb>
0.480464506131768

> <r_i_glide_esite>
0

> <r_i_glide_emodel>
-72.7142876179966

> <r_i_glide_energy>
-42.0492153167725

> <r_i_glide_einternal>
7.64692401885986

> <i_i_glide_confnum>
6

> <i_i_glide_posenum>
307

> <r_i_glide_eff_state_penalty>
0

> <s_user_duplicate_titles>
CHEMBL2023_lig6,CHEMBL2023_lig6,CHEMBL2023_lig6,CHEMBL2023_lig6,CHEMBL2023_lig6

> <s_m_subgroup_title>
glide-dock_SP_comt_chembl_pv

> <s_m_subgroupid>
glide-dock_SP_comt_chembl_pv

> <b_m_subgroup_collapsed>
1

$$$$
CHEMBL2023_lig30
                    3D
 Schrodinger Suite 2021-1.
 25 27  0  0  1  0            999 V2000
   -4.8408   -9.1842  -17.4200 C   0  0  0  0  0  0
   -5.4100   -7.9630  -17.8230 C   0  0  0  0  0  0
   -6.8380   -9.6661  -16.2226 C   0  0  0  0  0  0
   -5.5275  -10.0040  -16.5316 C   0  0  0  0  0  0
   -7.4266   -8.5062  -16.7100 C   0  0  0  0  0  0
   -6.6827   -7.6412  -17.4585 N   0  3  0  0  0  0
   -9.0857   -6.6548  -15.8267 S   0  0  0  0  0  0
   -8.8811   -8.2913  -16.3693 C   0  0  0  0  0  0
   -8.4526   -5.9173  -17.2877 C   0  0  0  0  0  0
   -7.2801   -6.3945  -17.9061 C   0  0  0  0  0  0
   -6.7500   -5.6451  -18.9837 C   0  0  0  0  0  0
   -7.4311   -4.5505  -19.5347 C   0  0  0  0  0  0
   -8.6697   -4.1888  -18.9988 C   0  0  0  0  0  0
   -9.1568   -4.8670  -17.8695 C   0  0  0  0  0  0
   -4.9266  -11.1087  -16.0125 O   0  0  0  0  0  0
   -3.6540   -9.6084  -17.9046 O   0  5  0  0  0  0
   -4.8540   -7.2840  -18.4356 H   0  0  0  0  0  0
   -7.4374  -10.2860  -15.6013 H   0  0  0  0  0  0
   -9.2069   -8.9424  -15.5577 H   0  0  0  0  0  0
   -9.5099   -8.4950  -17.2362 H   0  0  0  0  0  0
   -5.8102   -5.8831  -19.4230 H   0  0  0  0  0  0
   -7.0171   -4.0123  -20.3751 H   0  0  0  0  0  0
   -9.2364   -3.3720  -19.4230 H   0  0  0  0  0  0
  -10.0896   -4.6016  -17.4230 H   0  0  0  0  0  0
   -4.1920  -11.2584  -16.6060 H   0  0  0  0  0  0
  1  2  2  0  0  0
  1 16  1  0  0  0
  1  4  1  0  0  0
  2  6  1  0  0  0
  2 17  1  0  0  0
  3 18  1  0  0  0
  3  5  1  0  0  0
  3  4  2  0  0  0
  4 15  1  0  0  0
  5  8  1  0  0  0
  5  6  2  0  0  0
  6 10  1  0  0  0
  7  9  1  0  0  0
  7  8  1  0  0  0
  8 19  1  0  0  0
  8 20  1  0  0  0
  9 10  2  0  0  0
  9 14  1  0  0  0
 10 11  1  0  0  0
 11 12  2  0  0  0
 11 21  1  0  0  0
 12 13  1  0  0  0
 12 22  1  0  0  0
 13 14  2  0  0  0
 13 23  1  0  0  0
 14 24  1  0  0  0
 15 25  1  0  0  0
M  CHG  2   6   1  16  -1
M  END
> <s_m_entry_id>
36

> <s_m_entry_name>
glide-dock_SP_comt_chembl_pv.35

> <s_m_Source_Path>
/home/csk/Desktop/cluster/DUD-E-result/comt/glide-dock_SP_comt_chembl

> <s_m_Source_File>
glide-dock_SP_comt_chembl_pv.maegz

> <i_m_Source_File_Index>
35

> <chembl_id>
CHEMBL3425721

> <chembl_pref_name>
None

> <i_lp_mmshare_version>
53161

> <i_f3d_flags>
0

> <r_lp_tautomer_probability>
0.995892618013405

> <s_lp_Force_Field>
OPLS_2005

> <r_lp_Energy>
16.784048

> <b_lp_Chiralities_Consistent>
1

> <s_lp_Variant>
CHEMBL2023_lig30-1

> <s_i_glide_gridfile>
glide-grid_3bwm

> <i_i_glide_lignum>
39

> <i_i_glide_rotatable_bonds>
1

> <r_i_docking_score>
-8.80595157775972

> <r_i_glide_ligand_efficiency>
-0.550371973609983

> <r_i_glide_ligand_efficiency_sa>
-1.38685046836508

> <r_i_glide_ligand_efficiency_ln>
-2.3341933685609

> <r_i_glide_gscore>
-8.80595157775972

> <r_i_glide_lipo>
-1.96395929218316

> <r_i_glide_hbond>
0

> <r_i_glide_metal>
-2.3

> <r_i_glide_rewards>
-2.13224072727273

> <r_i_glide_evdw>
-13.0806865692139

> <r_i_glide_ecoul>
-11.7047815322876

> <r_i_glide_erotb>
0

> <r_i_glide_esite>
0

> <r_i_glide_emodel>
-62.3098748756592

> <r_i_glide_energy>
-24.7854681015015

> <r_i_glide_einternal>
3.03399014472961

> <i_i_glide_confnum>
1

> <i_i_glide_posenum>
322

> <r_i_glide_eff_state_penalty>
0

> <s_user_duplicate_titles>
CHEMBL2023_lig30,CHEMBL2023_lig30,CHEMBL2023_lig30

> <s_m_subgroup_title>
glide-dock_SP_comt_chembl_pv

> <s_m_subgroupid>
glide-dock_SP_comt_chembl_pv

> <b_m_subgroup_collapsed>
1

$$$$
CHEMBL2023_lig125
                    3D
 Schrodinger Suite 2021-1.
 22 23  0  0  1  0            999 V2000
   -4.7842  -12.4091  -16.2681 C   0  0  0  0  0  0
   -4.7794  -11.0793  -16.6976 C   0  0  0  0  0  0
   -4.2868  -10.7722  -17.9897 C   0  0  0  0  0  0
   -4.2974  -13.4352  -17.0902 C   0  0  0  0  0  0
   -3.8149  -13.1830  -18.3925 C   0  0  0  0  0  0
   -3.8456  -11.8236  -18.8354 C   0  0  0  0  0  0
   -3.2766  -11.7278  -20.5051 S   0  0  0  0  0  0
   -2.9462  -13.4344  -20.5657 C   0  0  0  0  0  0
   -3.2539  -14.0749  -19.3868 C   0  0  0  0  0  0
   -3.0237  -15.7170  -19.0051 Cl  0  0  0  0  0  0
   -2.3811  -13.9194  -21.8484 C   0  0  0  0  0  0
   -2.2526  -15.2736  -21.8961 O   0  0  0  0  0  0
   -2.0763  -13.1799  -22.7804 O   0  0  0  0  0  0
   -5.2543  -12.6874  -15.0229 O   0  0  0  0  0  0
   -5.2535  -10.1371  -15.8231 O   0  0  0  0  0  0
   -4.1757   -9.3770  -18.4370 N   0  3  0  0  0  0
   -5.0224   -8.5722  -18.0624 O   0  0  0  0  0  0
   -3.1975   -9.0851  -19.1128 O   0  5  0  0  0  0
   -4.3090  -14.4529  -16.7291 H   0  0  0  0  0  0
   -1.9123  -15.5617  -22.7281 H   0  0  0  0  0  0
   -5.6558  -13.5626  -15.0404 H   0  0  0  0  0  0
   -5.4636   -9.3058  -16.2428 H   0  0  0  0  0  0
  1  4  1  0  0  0
  1 14  1  0  0  0
  1  2  2  0  0  0
  2  3  1  0  0  0
  2 15  1  0  0  0
  3  6  2  0  0  0
  3 16  1  0  0  0
  4  5  2  0  0  0
  4 19  1  0  0  0
  5  9  1  0  0  0
  5  6  1  0  0  0
  6  7  1  0  0  0
  7  8  1  0  0  0
  8  9  2  0  0  0
  8 11  1  0  0  0
  9 10  1  0  0  0
 11 12  1  0  0  0
 11 13  2  0  0  0
 12 20  1  0  0  0
 14 21  1  0  0  0
 15 22  1  0  0  0
 16 17  2  0  0  0
 16 18  1  0  0  0
M  CHG  2  16   1  18  -1
M  END
> <s_m_entry_id>
39

> <s_m_entry_name>
glide-dock_SP_comt_chembl_pv.38

> <s_m_Source_Path>
/home/csk/Desktop/cluster/DUD-E-result/comt/glide-dock_SP_comt_chembl

> <s_m_Source_File>
glide-dock_SP_comt_chembl_pv.maegz

> <i_m_Source_File_Index>
38

> <chembl_id>
CHEMBL1089503

> <chembl_pref_name>
None

> <i_lp_mmshare_version>
53161

> <i_f3d_flags>
0

> <r_lp_tautomer_probability>
1

> <s_lp_Force_Field>
OPLS_2005

> <r_lp_Energy>
12.394381

> <b_lp_Chiralities_Consistent>
1

> <s_lp_Variant>
CHEMBL2023_lig125-1

> <s_i_glide_gridfile>
glide-grid_3bwm

> <i_i_glide_lignum>
150

> <i_i_glide_rotatable_bonds>
5

> <r_i_docking_score>
-8.73269970857982

> <r_i_glide_ligand_efficiency>
-0.48514998380999

> <r_i_glide_ligand_efficiency_sa>
-1.27145264374563

> <r_i_glide_ligand_efficiency_ln>
-2.24469543067583

> <r_i_glide_gscore>
-8.73269970857982

> <r_i_glide_lipo>
-0.831337823557902

> <r_i_glide_hbond>
0

> <r_i_glide_metal>
-2.3

> <r_i_glide_rewards>
-1.4342055

> <r_i_glide_evdw>
-25.4306316375732

> <r_i_glide_ecoul>
-20.6547050476074

> <r_i_glide_erotb>
0.21707921224557

> <r_i_glide_esite>
-0.0144982582477187

> <r_i_glide_emodel>
-79.2761823674759

> <r_i_glide_energy>
-46.0853366851807

> <r_i_glide_einternal>
1.26094031333923

> <i_i_glide_confnum>
1

> <i_i_glide_posenum>
151

> <r_i_glide_eff_state_penalty>
0

> <s_user_duplicate_titles>
CHEMBL2023_lig125,CHEMBL2023_lig125,CHEMBL2023_lig125,CHEMBL2023_lig125,CHEMBL2023_lig125

> <s_m_subgroup_title>
glide-dock_SP_comt_chembl_pv

> <s_m_subgroupid>
glide-dock_SP_comt_chembl_pv

> <b_m_subgroup_collapsed>
1

$$$$
CHEMBL2023_lig79 
                    3D
 Schrodinger Suite 2021-1.
 22 23  0  0  1  0            999 V2000
   -4.8295  -12.4378  -16.0946 C   0  0  0  0  0  0
   -4.3239  -13.4860  -16.8904 C   0  0  0  0  0  0
   -4.4851  -10.9270  -17.9652 C   0  0  0  0  0  0
   -4.8559  -11.1354  -16.6230 C   0  0  0  0  0  0
   -4.0531  -12.0284  -18.7366 C   0  0  0  0  0  0
   -3.9239  -13.2608  -18.1657 N   0  3  0  0  0  0
   -3.3426  -14.3997  -18.9288 C   0  0  0  0  0  0
   -2.9852  -14.0684  -20.3946 C   0  0  0  0  0  0
   -3.9174  -13.1062  -20.9518 N   0  0  1  0  0  0
   -3.7500  -11.8637  -20.2149 C   0  0  0  0  0  0
   -5.2540  -10.1055  -15.8230 O   0  0  0  0  0  0
   -5.2540  -12.6860  -14.8189 O   0  5  0  0  0  0
   -4.2503  -14.5034  -16.5335 H   0  0  0  0  0  0
   -4.5591   -9.9457  -18.4117 H   0  0  0  0  0  0
   -4.0540  -15.2199  -18.8828 H   0  0  0  0  0  0
   -2.4560  -14.7368  -18.3937 H   0  0  0  0  0  0
   -2.9937  -14.9774  -20.9967 H   0  0  0  0  0  0
   -1.9792  -13.6608  -20.4689 H   0  0  0  0  0  0
   -3.7151  -12.9510  -21.9318 H   0  0  0  0  0  0
   -2.7364  -11.4795  -20.3397 H   0  0  0  0  0  0
   -4.4276  -11.1197  -20.6363 H   0  0  0  0  0  0
   -5.5086   -9.3181  -16.2905 H   0  0  0  0  0  0
  1  2  2  0  0  0
  1 12  1  0  0  0
  1  4  1  0  0  0
  2  6  1  0  0  0
  2 13  1  0  0  0
  3 14  1  0  0  0
  3  5  1  0  0  0
  3  4  2  0  0  0
  4 11  1  0  0  0
  5 10  1  0  0  0
  5  6  2  0  0  0
  6  7  1  0  0  0
  7  8  1  0  0  0
  7 15  1  0  0  0
  7 16  1  0  0  0
  8  9  1  0  0  0
  8 17  1  0  0  0
  8 18  1  0  0  0
  9 10  1  0  0  0
  9 19  1  0  0  0
 10 20  1  0  0  0
 10 21  1  0  0  0
 11 22  1  0  0  0
M  CHG  2   6   1  12  -1
M  END
> <s_m_entry_id>
41

> <s_m_entry_name>
glide-dock_SP_comt_chembl_pv.40

> <s_m_Source_Path>
/home/csk/Desktop/cluster/DUD-E-result/comt/glide-dock_SP_comt_chembl

> <s_m_Source_File>
glide-dock_SP_comt_chembl_pv.maegz

> <i_m_Source_File_Index>
40

> <chembl_id>
CHEMBL4448560

> <chembl_pref_name>
None

> <i_lp_mmshare_version>
53161

> <i_f3d_flags>
0

> <r_lp_tautomer_probability>
0.995892618013405

> <s_lp_Force_Field>
OPLS_2005

> <r_lp_Energy>
8.950587

> <b_lp_Chiralities_Consistent>
1

> <s_lp_Variant>
CHEMBL2023_lig79 -1

> <s_i_glide_gridfile>
glide-grid_3bwm

> <i_i_glide_lignum>
101

> <i_i_glide_rotatable_bonds>
1

> <r_i_docking_score>
-8.71051123281113

> <r_i_glide_ligand_efficiency>
-0.725875936067594

> <r_i_glide_ligand_efficiency_sa>
-1.66184104331011

> <r_i_glide_ligand_efficiency_ln>
-2.49949628732265

> <r_i_glide_gscore>
-8.71051123281113

> <r_i_glide_lipo>
-0.511312427780026

> <r_i_glide_hbond>
-0.122435842689795

> <r_i_glide_metal>
-2.3

> <r_i_glide_rewards>
-3

> <r_i_glide_evdw>
-12.5172786712646

> <r_i_glide_ecoul>
-14.3393268585205

> <r_i_glide_erotb>
0

> <r_i_glide_esite>
0

> <r_i_glide_emodel>
-64.4003451658787

> <r_i_glide_energy>
-26.8566055297852

> <r_i_glide_einternal>
2.30686974525452

> <i_i_glide_confnum>
1

> <i_i_glide_posenum>
90

> <r_i_glide_eff_state_penalty>
0

> <s_user_duplicate_titles>
CHEMBL2023_lig79 ,CHEMBL2023_lig79 ,CHEMBL2023_lig79 ,CHEMBL2023_lig79 

> <s_m_subgroup_title>
glide-dock_SP_comt_chembl_pv

> <s_m_subgroupid>
glide-dock_SP_comt_chembl_pv

> <b_m_subgroup_collapsed>
1

$$$$
CHEMBL2023_lig65
                    3D
 Schrodinger Suite 2021-1.
 31 33  0  0  1  0            999 V2000
   -2.7239   -9.4908  -20.8564 O   0  0  0  0  0  0
   -3.0818  -10.9111  -20.8998 S   0  0  0  0  0  0
   -2.0561  -11.8826  -21.3096 O   0  0  0  0  0  0
   -4.0554  -13.3653  -17.8815 C   0  0  0  0  0  0
   -3.6101  -12.7970  -19.0692 C   0  0  0  0  0  0
   -3.6916  -11.4181  -19.2778 C   0  0  0  0  0  0
   -4.5384  -12.5547  -16.8329 C   0  0  0  0  0  0
   -4.6775  -11.1670  -17.0265 C   0  0  0  0  0  0
   -4.2594  -10.5893  -18.2653 C   0  0  0  0  0  0
   -4.4613   -9.2030  -18.4230 C   0  0  0  0  0  0
   -5.1286   -8.4787  -17.4228 C   0  0  0  0  0  0
   -5.5309   -9.1529  -16.2608 C   0  0  0  0  0  0
   -5.2520  -10.4459  -16.0265 N   0  0  0  0  0  0
   -4.9337  -13.0860  -15.6345 O   0  0  0  0  0  0
   -4.4661  -11.1203  -22.0194 C   0  0  0  0  0  0
   -4.8892  -10.0435  -22.8249 C   0  0  0  0  0  0
   -5.9541  -10.2242  -23.7312 C   0  0  0  0  0  0
   -6.5913  -11.4770  -23.8318 C   0  0  0  0  0  0
   -6.1584  -12.5543  -23.0335 C   0  0  0  0  0  0
   -5.0893  -12.3808  -22.1333 C   0  0  0  0  0  0
   -7.6189  -11.6487  -24.6961 F   0  0  0  0  0  0
   -4.0137  -15.0721  -17.8224 Cl  0  0  0  0  0  0
   -3.2156  -13.4477  -19.8364 H   0  0  0  0  0  0
   -4.1617   -8.6813  -19.3090 H   0  0  0  0  0  0
   -5.3427   -7.4253  -17.5410 H   0  0  0  0  0  0
   -6.0830   -8.6717  -15.4720 H   0  0  0  0  0  0
   -5.4302  -13.9104  -15.7548 H   0  0  0  0  0  0
   -4.4008   -9.0832  -22.7551 H   0  0  0  0  0  0
   -6.2851   -9.4012  -24.3474 H   0  0  0  0  0  0
   -6.6417  -13.5158  -23.1201 H   0  0  0  0  0  0
   -4.7533  -13.2173  -21.5412 H   0  0  0  0  0  0
  1  2  2  0  0  0
  2  3  2  0  0  0
  2  6  1  0  0  0
  2 15  1  0  0  0
  4  5  2  0  0  0
  4  7  1  0  0  0
  4 22  1  0  0  0
  5  6  1  0  0  0
  5 23  1  0  0  0
  6  9  2  0  0  0
  7  8  2  0  0  0
  7 14  1  0  0  0
  8  9  1  0  0  0
  8 13  1  0  0  0
  9 10  1  0  0  0
 10 11  2  0  0  0
 10 24  1  0  0  0
 11 12  1  0  0  0
 11 25  1  0  0  0
 12 13  2  0  0  0
 12 26  1  0  0  0
 14 27  1  0  0  0
 15 16  2  0  0  0
 15 20  1  0  0  0
 16 17  1  0  0  0
 16 28  1  0  0  0
 17 18  2  0  0  0
 17 29  1  0  0  0
 18 19  1  0  0  0
 18 21  1  0  0  0
 19 20  2  0  0  0
 19 30  1  0  0  0
 20 31  1  0  0  0
M  END
> <s_m_entry_id>
44

> <s_m_entry_name>
glide-dock_SP_comt_chembl_pv.43

> <s_m_Source_Path>
/home/csk/Desktop/cluster/DUD-E-result/comt/glide-dock_SP_comt_chembl

> <s_m_Source_File>
glide-dock_SP_comt_chembl_pv.maegz

> <i_m_Source_File_Index>
43

> <chembl_id>
CHEMBL4174751

> <chembl_pref_name>
None

> <i_lp_mmshare_version>
53161

> <i_f3d_flags>
0

> <r_lp_tautomer_probability>
1

> <s_lp_Force_Field>
OPLS_2005

> <r_lp_Energy>
13.479288

> <b_lp_Chiralities_Consistent>
1

> <s_lp_Variant>
CHEMBL2023_lig65-1

> <s_i_glide_gridfile>
glide-grid_3bwm

> <i_i_glide_lignum>
87

> <i_i_glide_rotatable_bonds>
3

> <r_i_docking_score>
-8.68455617151706

> <r_i_glide_ligand_efficiency>
-0.394752553250775

> <r_i_glide_ligand_efficiency_sa>
-1.10611217894563

> <r_i_glide_ligand_efficiency_ln>
-2.12282230520193

> <r_i_glide_gscore>
-8.68455617151706

> <r_i_glide_lipo>
-0.964529133293013

> <r_i_glide_hbond>
-0.33482854872919

> <r_i_glide_metal>
-2.3

> <r_i_glide_rewards>
-1.18122297954545

> <r_i_glide_evdw>
-17.9493427276611

> <r_i_glide_ecoul>
-21.859489440918

> <r_i_glide_erotb>
0.331409947631566

> <r_i_glide_esite>
-0.0589949050602174

> <r_i_glide_emodel>
-61.1304036009479

> <r_i_glide_energy>
-39.8088321685791

> <r_i_glide_einternal>
8.43315887451172

> <i_i_glide_confnum>
4

> <i_i_glide_posenum>
247

> <r_i_glide_eff_state_penalty>
0

> <s_user_duplicate_titles>
CHEMBL2023_lig65,CHEMBL2023_lig65,CHEMBL2023_lig65,CHEMBL2023_lig65,CHEMBL2023_lig65

> <s_m_subgroup_title>
glide-dock_SP_comt_chembl_pv

> <s_m_subgroupid>
glide-dock_SP_comt_chembl_pv

> <b_m_subgroup_collapsed>
1

$$$$
CHEMBL2023_lig67
                    3D
 Schrodinger Suite 2021-1.
 34 36  0  0  1  0            999 V2000
   -2.0494  -10.2855  -20.3635 O   0  0  0  0  0  0
   -3.3159  -11.0102  -20.5460 S   0  0  0  0  0  0
   -4.4540  -10.3265  -21.1767 O   0  0  0  0  0  0
   -4.1561  -13.3752  -17.3099 C   0  0  0  0  0  0
   -3.6821  -12.9190  -18.5495 C   0  0  0  0  0  0
   -3.8331  -11.5656  -18.9082 C   0  0  0  0  0  0
   -4.7454  -12.4849  -16.3897 C   0  0  0  0  0  0
   -4.8733  -11.1268  -16.7221 C   0  0  0  0  0  0
   -4.4154  -10.6621  -17.9857 C   0  0  0  0  0  0
   -4.6008   -9.2968  -18.2885 C   0  0  0  0  0  0
   -5.3559   -8.5059  -17.4130 C   0  0  0  0  0  0
   -5.8199   -9.0859  -16.2231 C   0  0  0  0  0  0
   -5.4870  -10.3224  -15.8230 N   0  0  0  0  0  0
   -5.2540  -12.9287  -15.1914 O   0  0  0  0  0  0
   -3.0119  -12.4912  -21.5081 C   0  0  0  0  0  0
   -4.1113  -13.2614  -21.9370 C   0  0  0  0  0  0
   -3.8895  -14.4543  -22.6514 C   0  0  0  0  0  0
   -2.5731  -14.8731  -22.9382 C   0  0  0  0  0  0
   -1.4770  -14.0905  -22.5162 C   0  0  0  0  0  0
   -1.6941  -12.8954  -21.8028 C   0  0  0  0  0  0
   -2.3416  -16.1659  -23.6930 C   0  0  0  0  0  0
   -4.0540  -14.6860  -17.0237 F   0  0  0  0  0  0
   -3.2326  -13.6361  -19.2188 H   0  0  0  0  0  0
   -4.2335   -8.8545  -19.1996 H   0  0  0  0  0  0
   -5.5882   -7.4757  -17.6444 H   0  0  0  0  0  0
   -6.4338   -8.5245  -15.5363 H   0  0  0  0  0  0
   -5.6897  -13.7831  -15.3246 H   0  0  0  0  0  0
   -5.1185  -12.9433  -21.7095 H   0  0  0  0  0  0
   -4.7307  -15.0508  -22.9742 H   0  0  0  0  0  0
   -0.4673  -14.4064  -22.7340 H   0  0  0  0  0  0
   -0.8529  -12.3034  -21.4725 H   0  0  0  0  0  0
   -1.3381  -16.2023  -24.1161 H   0  0  0  0  0  0
   -3.0567  -16.2668  -24.5099 H   0  0  0  0  0  0
   -2.4633  -17.0190  -23.0252 H   0  0  0  0  0  0
  1  2  2  0  0  0
  2  3  2  0  0  0
  2  6  1  0  0  0
  2 15  1  0  0  0
  4  5  2  0  0  0
  4  7  1  0  0  0
  4 22  1  0  0  0
  5  6  1  0  0  0
  5 23  1  0  0  0
  6  9  2  0  0  0
  7  8  2  0  0  0
  7 14  1  0  0  0
  8  9  1  0  0  0
  8 13  1  0  0  0
  9 10  1  0  0  0
 10 11  2  0  0  0
 10 24  1  0  0  0
 11 12  1  0  0  0
 11 25  1  0  0  0
 12 13  2  0  0  0
 12 26  1  0  0  0
 14 27  1  0  0  0
 15 16  2  0  0  0
 15 20  1  0  0  0
 16 17  1  0  0  0
 16 28  1  0  0  0
 17 18  2  0  0  0
 17 29  1  0  0  0
 18 19  1  0  0  0
 18 21  1  0  0  0
 19 20  2  0  0  0
 19 30  1  0  0  0
 20 31  1  0  0  0
 21 32  1  0  0  0
 21 33  1  0  0  0
 21 34  1  0  0  0
M  END
> <s_m_entry_id>
46

> <s_m_entry_name>
glide-dock_SP_comt_chembl_pv.45

> <s_m_Source_Path>
/home/csk/Desktop/cluster/DUD-E-result/comt/glide-dock_SP_comt_chembl

> <s_m_Source_File>
glide-dock_SP_comt_chembl_pv.maegz

> <i_m_Source_File_Index>
45

> <chembl_id>
CHEMBL4177089

> <chembl_pref_name>
None

> <i_lp_mmshare_version>
53161

> <i_f3d_flags>
0

> <r_lp_tautomer_probability>
1

> <s_lp_Force_Field>
OPLS_2005

> <r_lp_Energy>
16.964932

> <b_lp_Chiralities_Consistent>
1

> <s_lp_Variant>
CHEMBL2023_lig67-1

> <s_i_glide_gridfile>
glide-grid_3bwm

> <i_i_glide_lignum>
89

> <i_i_glide_rotatable_bonds>
3

> <r_i_docking_score>
-8.65076065781955

> <r_i_glide_ligand_efficiency>
-0.393216393537252

> <r_i_glide_ligand_efficiency_sa>
-1.1018077990146

> <r_i_glide_ligand_efficiency_ln>
-2.11456144893295

> <r_i_glide_gscore>
-8.65076065781955

> <r_i_glide_lipo>
-0.49475909688384

> <r_i_glide_hbond>
-0.393031254530234

> <r_i_glide_metal>
-2.3

> <r_i_glide_rewards>
-1.29677597392845

> <r_i_glide_evdw>
-20.2074298858643

> <r_i_glide_ecoul>
-22.725133895874

> <r_i_glide_erotb>
0.369991213352599

> <r_i_glide_esite>
-0.117043967155306

> <r_i_glide_emodel>
-71.3336316181616

> <r_i_glide_energy>
-42.9325637817383

> <r_i_glide_einternal>
3.88202238082886

> <i_i_glide_confnum>
3

> <i_i_glide_posenum>
251

> <r_i_glide_eff_state_penalty>
0

> <s_user_duplicate_titles>
CHEMBL2023_lig67,CHEMBL2023_lig67,CHEMBL2023_lig67

> <s_m_subgroup_title>
glide-dock_SP_comt_chembl_pv

> <s_m_subgroupid>
glide-dock_SP_comt_chembl_pv

> <b_m_subgroup_collapsed>
1

$$$$
CHEMBL2023_lig124
                    3D
 Schrodinger Suite 2021-1.
 25 26  0  0  1  0            999 V2000
   -4.7855  -12.4029  -16.2682 C   0  0  0  0  0  0
   -4.7808  -11.0722  -16.6969 C   0  0  0  0  0  0
   -4.2869  -10.7632  -17.9885 C   0  0  0  0  0  0
   -4.2969  -13.4271  -17.0927 C   0  0  0  0  0  0
   -3.8140  -13.1725  -18.3947 C   0  0  0  0  0  0
   -3.8474  -11.8128  -18.8354 C   0  0  0  0  0  0
   -3.2842  -11.7112  -20.5062 S   0  0  0  0  0  0
   -2.9470  -13.4159  -20.5685 C   0  0  0  0  0  0
   -3.2535  -14.0642  -19.3910 C   0  0  0  0  0  0
   -3.0303  -15.7071  -19.0047 Cl  0  0  0  0  0  0
   -2.3867  -13.9177  -21.8302 C   0  0  0  0  0  0
   -2.1695  -15.2423  -21.8220 O   0  0  0  0  0  0
   -2.1481  -13.1873  -22.7935 O   0  0  0  0  0  0
   -5.2541  -12.6861  -15.0230 O   0  0  0  0  0  0
   -5.2540  -10.1302  -15.8231 O   0  0  0  0  0  0
   -4.1668   -9.3673  -18.4311 N   0  3  0  0  0  0
   -3.1776   -9.0769  -19.0917 O   0  0  0  0  0  0
   -5.0181   -8.5631  -18.0684 O   0  5  0  0  0  0
   -1.6401  -15.8750  -22.9739 C   0  0  0  0  0  0
   -4.3097  -14.4460  -16.7350 H   0  0  0  0  0  0
   -5.6538  -13.5628  -15.0409 H   0  0  0  0  0  0
   -5.4643   -9.2985  -16.2425 H   0  0  0  0  0  0
   -1.5217  -16.9423  -22.7882 H   0  0  0  0  0  0
   -0.6643  -15.4620  -23.2310 H   0  0  0  0  0  0
   -2.3104  -15.7537  -23.8251 H   0  0  0  0  0  0
  1  4  1  0  0  0
  1 14  1  0  0  0
  1  2  2  0  0  0
  2  3  1  0  0  0
  2 15  1  0  0  0
  3  6  2  0  0  0
  3 16  1  0  0  0
  4  5  2  0  0  0
  4 20  1  0  0  0
  5  9  1  0  0  0
  5  6  1  0  0  0
  6  7  1  0  0  0
  7  8  1  0  0  0
  8 11  1  0  0  0
  8  9  2  0  0  0
  9 10  1  0  0  0
 11 12  1  0  0  0
 11 13  2  0  0  0
 12 19  1  0  0  0
 14 21  1  0  0  0
 15 22  1  0  0  0
 16 17  2  0  0  0
 16 18  1  0  0  0
 19 23  1  0  0  0
 19 24  1  0  0  0
 19 25  1  0  0  0
M  CHG  2  16   1  18  -1
M  END
> <s_m_entry_id>
47

> <s_m_entry_name>
glide-dock_SP_comt_chembl_pv.46

> <s_m_Source_Path>
/home/csk/Desktop/cluster/DUD-E-result/comt/glide-dock_SP_comt_chembl

> <s_m_Source_File>
glide-dock_SP_comt_chembl_pv.maegz

> <i_m_Source_File_Index>
46

> <chembl_id>
CHEMBL1089504

> <chembl_pref_name>
None

> <i_lp_mmshare_version>
53161

> <i_f3d_flags>
0

> <r_lp_tautomer_probability>
1

> <s_lp_Force_Field>
OPLS_2005

> <r_lp_Energy>
12.15977

> <b_lp_Chiralities_Consistent>
1

> <s_lp_Variant>
CHEMBL2023_lig124-1

> <s_i_glide_gridfile>
glide-grid_3bwm

> <i_i_glide_lignum>
149

> <i_i_glide_rotatable_bonds>
5

> <r_i_docking_score>
-8.63960430673879

> <r_i_glide_ligand_efficiency>
-0.454716016144147

> <r_i_glide_ligand_efficiency_sa>
-1.21336496598842

> <r_i_glide_ligand_efficiency_ln>
-2.19032525344442

> <r_i_glide_gscore>
-8.63960430673879

> <r_i_glide_lipo>
-0.829067380022263

> <r_i_glide_hbond>
0

> <r_i_glide_metal>
-2.3

> <r_i_glide_rewards>
-1.33856972473149

> <r_i_glide_evdw>
-25.8828983306885

> <r_i_glide_ecoul>
-20.4165706634521

> <r_i_glide_erotb>
0.199858020517859

> <r_i_glide_esite>
-0.0151947064506534

> <r_i_glide_emodel>
-79.2401493949481

> <r_i_glide_energy>
-46.2994689941406

> <r_i_glide_einternal>
1.28673505783081

> <i_i_glide_confnum>
1

> <i_i_glide_posenum>
356

> <r_i_glide_eff_state_penalty>
0

> <s_user_duplicate_titles>
CHEMBL2023_lig124,CHEMBL2023_lig124,CHEMBL2023_lig124,CHEMBL2023_lig124

> <s_m_subgroup_title>
glide-dock_SP_comt_chembl_pv

> <s_m_subgroupid>
glide-dock_SP_comt_chembl_pv

> <b_m_subgroup_collapsed>
1

$$$$
CHEMBL2023_lig68
                    3D
 Schrodinger Suite 2021-1.
 34 36  0  0  1  0            999 V2000
   -2.0540   -9.8860  -20.5308 O   0  0  0  0  0  0
   -3.2459  -10.6759  -20.8616 S   0  0  0  0  0  0
   -4.4058  -10.0385  -21.4994 O   0  0  0  0  0  0
   -3.9955  -13.3509  -17.9177 C   0  0  0  0  0  0
   -3.6407  -12.7645  -19.1290 C   0  0  0  0  0  0
   -3.7830  -11.3857  -19.3066 C   0  0  0  0  0  0
   -4.5064  -12.5747  -16.8543 C   0  0  0  0  0  0
   -4.6948  -11.1884  -17.0230 C   0  0  0  0  0  0
   -4.3018  -10.5899  -18.2539 C   0  0  0  0  0  0
   -4.4540   -9.1970  -18.3884 C   0  0  0  0  0  0
   -5.0977   -8.4795  -17.3694 C   0  0  0  0  0  0
   -5.5160   -9.1727  -16.2230 C   0  0  0  0  0  0
   -5.2540  -10.4763  -16.0074 N   0  0  0  0  0  0
   -4.8540  -13.1413  -15.6579 O   0  0  0  0  0  0
   -2.7389  -12.0371  -21.9106 C   0  0  0  0  0  0
   -1.3888  -12.4404  -21.9342 C   0  0  0  0  0  0
   -1.0087  -13.5512  -22.7120 C   0  0  0  0  0  0
   -1.9756  -14.2575  -23.4590 C   0  0  0  0  0  0
   -3.3248  -13.8452  -23.4325 C   0  0  0  0  0  0
   -3.7098  -12.7346  -22.6568 C   0  0  0  0  0  0
   -1.5689  -15.4553  -24.2923 C   0  0  0  0  0  0
   -3.7558  -15.0380  -17.8230 Cl  0  0  0  0  0  0
   -3.2426  -13.4061  -19.8985 H   0  0  0  0  0  0
   -4.1178   -8.6860  -19.2744 H   0  0  0  0  0  0
   -5.2842   -7.4183  -17.4621 H   0  0  0  0  0  0
   -6.0518   -8.6860  -15.4247 H   0  0  0  0  0  0
   -5.3934  -13.9374  -15.7808 H   0  0  0  0  0  0
   -0.6474  -11.9086  -21.3559 H   0  0  0  0  0  0
    0.0263  -13.8608  -22.7300 H   0  0  0  0  0  0
   -4.0677  -14.3826  -24.0040 H   0  0  0  0  0  0
   -4.7448  -12.4259  -22.6274 H   0  0  0  0  0  0
   -2.3255  -16.2386  -24.2353 H   0  0  0  0  0  0
   -0.6242  -15.8746  -23.9448 H   0  0  0  0  0  0
   -1.4520  -15.1650  -25.3366 H   0  0  0  0  0  0
  1  2  2  0  0  0
  2  3  2  0  0  0
  2  6  1  0  0  0
  2 15  1  0  0  0
  4  5  2  0  0  0
  4  7  1  0  0  0
  4 22  1  0  0  0
  5  6  1  0  0  0
  5 23  1  0  0  0
  6  9  2  0  0  0
  7  8  2  0  0  0
  7 14  1  0  0  0
  8  9  1  0  0  0
  8 13  1  0  0  0
  9 10  1  0  0  0
 10 11  2  0  0  0
 10 24  1  0  0  0
 11 12  1  0  0  0
 11 25  1  0  0  0
 12 13  2  0  0  0
 12 26  1  0  0  0
 14 27  1  0  0  0
 15 16  2  0  0  0
 15 20  1  0  0  0
 16 17  1  0  0  0
 16 28  1  0  0  0
 17 18  2  0  0  0
 17 29  1  0  0  0
 18 19  1  0  0  0
 18 21  1  0  0  0
 19 20  2  0  0  0
 19 30  1  0  0  0
 20 31  1  0  0  0
 21 32  1  0  0  0
 21 33  1  0  0  0
 21 34  1  0  0  0
M  END
> <s_m_entry_id>
56

> <s_m_entry_name>
glide-dock_SP_comt_chembl_pv.55

> <s_m_Source_Path>
/home/csk/Desktop/cluster/DUD-E-result/comt/glide-dock_SP_comt_chembl

> <s_m_Source_File>
glide-dock_SP_comt_chembl_pv.maegz

> <i_m_Source_File_Index>
55

> <chembl_id>
CHEMBL4164621

> <chembl_pref_name>
None

> <i_lp_mmshare_version>
53161

> <i_f3d_flags>
0

> <r_lp_tautomer_probability>
1

> <s_lp_Force_Field>
OPLS_2005

> <r_lp_Energy>
14.192597

> <b_lp_Chiralities_Consistent>
1

> <s_lp_Variant>
CHEMBL2023_lig68-1

> <s_i_glide_gridfile>
glide-grid_3bwm

> <i_i_glide_lignum>
90

> <i_i_glide_rotatable_bonds>
3

> <r_i_docking_score>
-8.57792091736035

> <r_i_glide_ligand_efficiency>
-0.389905496243652

> <r_i_glide_ligand_efficiency_sa>
-1.09253053458773

> <r_i_glide_ligand_efficiency_ln>
-2.09675675947063

> <r_i_glide_gscore>
-8.57792091736035

> <r_i_glide_lipo>
-0.754489880398133

> <r_i_glide_hbond>
-0.353397449794721

> <r_i_glide_metal>
-2.3

> <r_i_glide_rewards>
-1.20824945454545

> <r_i_glide_evdw>
-14.6671695709229

> <r_i_glide_ecoul>
-23.3238658905029

> <r_i_glide_erotb>
0.338409883285726

> <r_i_glide_esite>
-0.0682556537861837

> <r_i_glide_emodel>
-61.643978935609

> <r_i_glide_energy>
-37.9910354614258

> <r_i_glide_einternal>
3.35164308547974

> <i_i_glide_confnum>
5

> <i_i_glide_posenum>
332

> <r_i_glide_eff_state_penalty>
0

> <s_user_duplicate_titles>
CHEMBL2023_lig68,CHEMBL2023_lig68,CHEMBL2023_lig68,CHEMBL2023_lig68,CHEMBL2023_lig68

> <s_m_subgroup_title>
glide-dock_SP_comt_chembl_pv

> <s_m_subgroupid>
glide-dock_SP_comt_chembl_pv

> <b_m_subgroup_collapsed>
1

$$$$
CHEMBL2023_lig66
                    3D
 Schrodinger Suite 2021-1.
 31 33  0  0  1  0            999 V2000
   -4.4539  -10.3408  -21.1696 O   0  0  0  0  0  0
   -3.3079  -11.0089  -20.5360 S   0  0  0  0  0  0
   -2.0498  -10.2716  -20.3514 O   0  0  0  0  0  0
   -4.1489  -13.3739  -17.3049 C   0  0  0  0  0  0
   -3.6660  -12.9165  -18.5403 C   0  0  0  0  0  0
   -3.8224  -11.5644  -18.8998 C   0  0  0  0  0  0
   -4.7426  -12.4845  -16.3860 C   0  0  0  0  0  0
   -4.8723  -11.1265  -16.7187 C   0  0  0  0  0  0
   -4.4118  -10.6616  -17.9808 C   0  0  0  0  0  0
   -4.6004   -9.2969  -18.2856 C   0  0  0  0  0  0
   -5.3592   -8.5067  -17.4124 C   0  0  0  0  0  0
   -5.8259   -9.0860  -16.2230 C   0  0  0  0  0  0
   -5.4920  -10.3227  -15.8230 N   0  0  0  0  0  0
   -5.2540  -12.9292  -15.1891 O   0  0  0  0  0  0
   -2.9801  -12.4844  -21.4986 C   0  0  0  0  0  0
   -4.0663  -13.2547  -21.9624 C   0  0  0  0  0  0
   -3.8214  -14.4274  -22.7037 C   0  0  0  0  0  0
   -2.4974  -14.8233  -22.9804 C   0  0  0  0  0  0
   -1.4154  -14.0490  -22.5155 C   0  0  0  0  0  0
   -1.6540  -12.8757  -21.7732 C   0  0  0  0  0  0
   -2.2646  -15.9491  -23.6939 F   0  0  0  0  0  0
   -4.0540  -14.6859  -17.0230 F   0  0  0  0  0  0
   -3.2140  -13.6326  -19.2087 H   0  0  0  0  0  0
   -4.2318   -8.8544  -19.1960 H   0  0  0  0  0  0
   -5.5934   -7.4774  -17.6454 H   0  0  0  0  0  0
   -6.4448   -8.5259  -15.5386 H   0  0  0  0  0  0
   -5.6903  -13.7833  -15.3233 H   0  0  0  0  0  0
   -5.0803  -12.9483  -21.7491 H   0  0  0  0  0  0
   -4.6465  -15.0257  -23.0619 H   0  0  0  0  0  0
   -0.4024  -14.3561  -22.7306 H   0  0  0  0  0  0
   -0.8220  -12.2841  -21.4203 H   0  0  0  0  0  0
  1  2  2  0  0  0
  2  3  2  0  0  0
  2  6  1  0  0  0
  2 15  1  0  0  0
  4  5  2  0  0  0
  4  7  1  0  0  0
  4 22  1  0  0  0
  5  6  1  0  0  0
  5 23  1  0  0  0
  6  9  2  0  0  0
  7  8  2  0  0  0
  7 14  1  0  0  0
  8  9  1  0  0  0
  8 13  1  0  0  0
  9 10  1  0  0  0
 10 11  2  0  0  0
 10 24  1  0  0  0
 11 12  1  0  0  0
 11 25  1  0  0  0
 12 13  2  0  0  0
 12 26  1  0  0  0
 14 27  1  0  0  0
 15 16  2  0  0  0
 15 20  1  0  0  0
 16 17  1  0  0  0
 16 28  1  0  0  0
 17 18  2  0  0  0
 17 29  1  0  0  0
 18 19  1  0  0  0
 18 21  1  0  0  0
 19 20  2  0  0  0
 19 30  1  0  0  0
 20 31  1  0  0  0
M  END
> <s_m_entry_id>
61

> <s_m_entry_name>
glide-dock_SP_comt_chembl_pv.60

> <s_m_Source_Path>
/home/csk/Desktop/cluster/DUD-E-result/comt/glide-dock_SP_comt_chembl

> <s_m_Source_File>
glide-dock_SP_comt_chembl_pv.maegz

> <i_m_Source_File_Index>
60

> <chembl_id>
CHEMBL4171117

> <chembl_pref_name>
None

> <i_lp_mmshare_version>
53161

> <i_f3d_flags>
0

> <r_lp_tautomer_probability>
1

> <s_lp_Force_Field>
OPLS_2005

> <r_lp_Energy>
16.459318

> <b_lp_Chiralities_Consistent>
1

> <s_lp_Variant>
CHEMBL2023_lig66-1

> <s_i_glide_gridfile>
glide-grid_3bwm

> <i_i_glide_lignum>
88

> <i_i_glide_rotatable_bonds>
3

> <r_i_docking_score>
-8.5161286617661

> <r_i_glide_ligand_efficiency>
-0.387096757353004

> <r_i_glide_ligand_efficiency_sa>
-1.08466033775471

> <r_i_glide_ligand_efficiency_ln>
-2.08165247827611

> <r_i_glide_gscore>
-8.5161286617661

> <r_i_glide_lipo>
-0.490657174547534

> <r_i_glide_hbond>
-0.394123188319191

> <r_i_glide_metal>
-2.3

> <r_i_glide_rewards>
-1.26969252896698

> <r_i_glide_evdw>
-19.9400310516357

> <r_i_glide_ecoul>
-22.0507946014404

> <r_i_glide_erotb>
0.361988431191341

> <r_i_glide_esite>
-0.119023458325884

> <r_i_glide_emodel>
-69.8215140159975

> <r_i_glide_energy>
-41.9908256530762

> <r_i_glide_einternal>
3.93448281288147

> <i_i_glide_confnum>
5

> <i_i_glide_posenum>
359

> <r_i_glide_eff_state_penalty>
0

> <s_user_duplicate_titles>
CHEMBL2023_lig66,CHEMBL2023_lig66,CHEMBL2023_lig66

> <s_m_subgroup_title>
glide-dock_SP_comt_chembl_pv

> <s_m_subgroupid>
glide-dock_SP_comt_chembl_pv

> <b_m_subgroup_collapsed>
1

$$$$
CHEMBL2023_lig64
                    3D
 Schrodinger Suite 2021-1.
 34 36  0  0  1  0            999 V2000
   -2.0721  -12.3734  -21.0232 O   0  0  0  0  0  0
   -2.9715  -11.2727  -20.6438 S   0  0  0  0  0  0
   -2.4538   -9.8948  -20.6540 O   0  0  0  0  0  0
   -4.1162  -13.3909  -17.3680 C   0  0  0  0  0  0
   -3.5855  -12.9913  -18.6015 C   0  0  0  0  0  0
   -3.6505  -11.6455  -19.0049 C   0  0  0  0  0  0
   -4.7120  -12.4592  -16.5020 C   0  0  0  0  0  0
   -4.8090  -11.1167  -16.8944 C   0  0  0  0  0  0
   -4.2852  -10.6986  -18.1543 C   0  0  0  0  0  0
   -4.4609   -9.3429  -18.5041 C   0  0  0  0  0  0
   -5.2087   -8.5092  -17.6598 C   0  0  0  0  0  0
   -5.7098   -9.0394  -16.4637 C   0  0  0  0  0  0
   -5.4423  -10.2860  -16.0369 N   0  0  0  0  0  0
   -5.2539  -12.8503  -15.2993 O   0  0  0  0  0  0
   -4.3845  -11.3776  -21.7413 C   0  0  0  0  0  0
   -4.7449  -10.2859  -22.5568 C   0  0  0  0  0  0
   -5.8527  -10.3974  -23.4230 C   0  0  0  0  0  0
   -6.6091  -11.5912  -23.4655 C   0  0  0  0  0  0
   -6.2178  -12.6873  -22.6658 C   0  0  0  0  0  0
   -5.1061  -12.5860  -21.8080 C   0  0  0  0  0  0
   -7.8320  -11.7042  -24.3645 C   0  0  0  0  0  0
   -7.4598  -12.1647  -25.5583 F   0  0  0  0  0  0
   -8.4153  -10.5160  -24.5224 F   0  0  0  0  0  0
   -8.7294  -12.5456  -23.8420 F   0  0  0  0  0  0
   -4.0541  -14.6860  -17.0232 F   0  0  0  0  0  0
   -3.1290  -13.7353  -19.2384 H   0  0  0  0  0  0
   -4.0997   -8.9217  -19.4229 H   0  0  0  0  0  0
   -5.4155   -7.4823  -17.9267 H   0  0  0  0  0  0
   -6.3242   -8.4313  -15.8208 H   0  0  0  0  0  0
   -5.6872  -13.7094  -15.4110 H   0  0  0  0  0  0
   -4.1790   -9.3663  -22.5220 H   0  0  0  0  0  0
   -6.1317   -9.5560  -24.0404 H   0  0  0  0  0  0
   -6.7747  -13.6107  -22.7084 H   0  0  0  0  0  0
   -4.8137  -13.4314  -21.2032 H   0  0  0  0  0  0
  1  2  2  0  0  0
  2  3  2  0  0  0
  2  6  1  0  0  0
  2 15  1  0  0  0
  4  5  2  0  0  0
  4  7  1  0  0  0
  4 25  1  0  0  0
  5  6  1  0  0  0
  5 26  1  0  0  0
  6  9  2  0  0  0
  7  8  2  0  0  0
  7 14  1  0  0  0
  8  9  1  0  0  0
  8 13  1  0  0  0
  9 10  1  0  0  0
 10 11  2  0  0  0
 10 27  1  0  0  0
 11 12  1  0  0  0
 11 28  1  0  0  0
 12 13  2  0  0  0
 12 29  1  0  0  0
 14 30  1  0  0  0
 15 16  2  0  0  0
 15 20  1  0  0  0
 16 17  1  0  0  0
 16 31  1  0  0  0
 17 18  2  0  0  0
 17 32  1  0  0  0
 18 19  1  0  0  0
 18 21  1  0  0  0
 19 20  2  0  0  0
 19 33  1  0  0  0
 20 34  1  0  0  0
 21 22  1  0  0  0
 21 23  1  0  0  0
 21 24  1  0  0  0
M  END
> <s_m_entry_id>
64

> <s_m_entry_name>
glide-dock_SP_comt_chembl_pv.63

> <s_m_Source_Path>
/home/csk/Desktop/cluster/DUD-E-result/comt/glide-dock_SP_comt_chembl

> <s_m_Source_File>
glide-dock_SP_comt_chembl_pv.maegz

> <i_m_Source_File_Index>
63

> <chembl_id>
CHEMBL4176890

> <chembl_pref_name>
None

> <i_lp_mmshare_version>
53161

> <i_f3d_flags>
0

> <r_lp_tautomer_probability>
1

> <s_lp_Force_Field>
OPLS_2005

> <r_lp_Energy>
14.789102

> <b_lp_Chiralities_Consistent>
1

> <s_lp_Variant>
CHEMBL2023_lig64-1

> <s_i_glide_gridfile>
glide-grid_3bwm

> <i_i_glide_lignum>
86

> <i_i_glide_rotatable_bonds>
4

> <r_i_docking_score>
-8.4972000894225

> <r_i_glide_ligand_efficiency>
-0.3398880035769

> <r_i_glide_ligand_efficiency_sa>
-0.993838550398266

> <r_i_glide_ligand_efficiency_ln>
-2.01409106173158

> <r_i_glide_gscore>
-8.4972000894225

> <r_i_glide_lipo>
-0.746195202517319

> <r_i_glide_hbond>
-0.31344457374155

> <r_i_glide_metal>
-2.02856158516644

> <r_i_glide_rewards>
-0.94798630743907

> <r_i_glide_evdw>
-25.6161785125732

> <r_i_glide_ecoul>
-22.0395202636719

> <r_i_glide_erotb>
0.280000426914831

> <r_i_glide_esite>
-0.15427588229351

> <r_i_glide_emodel>
-76.67388446566

> <r_i_glide_energy>
-47.6556987762451

> <r_i_glide_einternal>
4.13545799255371

> <i_i_glide_confnum>
8

> <i_i_glide_posenum>
369

> <r_i_glide_eff_state_penalty>
0

> <s_user_duplicate_titles>
CHEMBL2023_lig64,CHEMBL2023_lig64,CHEMBL2023_lig64,CHEMBL2023_lig64,CHEMBL2023_lig64

> <s_m_subgroup_title>
glide-dock_SP_comt_chembl_pv

> <s_m_subgroupid>
glide-dock_SP_comt_chembl_pv

> <b_m_subgroup_collapsed>
1

$$$$
CHEMBL2023_lig25
                    3D
 Schrodinger Suite 2021-1.
 23 24  0  0  1  0            999 V2000
   -5.0042   -8.9410  -17.3503 C   0  0  0  0  0  0
   -5.4741   -7.7662  -17.9610 C   0  0  0  0  0  0
   -7.0989   -9.0860  -16.1526 C   0  0  0  0  0  0
   -5.8072   -9.5878  -16.4128 C   0  0  0  0  0  0
   -7.5659   -7.9690  -16.8794 C   0  0  0  0  0  0
   -6.7494   -7.3408  -17.7723 N   0  3  0  0  0  0
   -5.2555  -10.6860  -15.8230 O   0  0  0  0  0  0
   -3.7953   -9.4860  -17.6665 O   0  5  0  0  0  0
   -7.2690   -6.2272  -18.5629 C   0  0  0  0  0  0
   -6.4540   -5.1602  -19.0230 C   0  0  0  0  0  0
   -7.0104   -4.0857  -19.7453 C   0  0  0  0  0  0
   -8.3871   -4.0670  -20.0338 C   0  0  0  0  0  0
   -9.1986   -5.1400  -19.6266 C   0  0  0  0  0  0
   -8.6348   -6.2167  -18.9164 C   0  0  0  0  0  0
   -4.8540   -7.2032  -18.6230 H   0  0  0  0  0  0
   -7.7423   -9.5489  -15.4230 H   0  0  0  0  0  0
   -8.5480   -7.5555  -16.7105 H   0  0  0  0  0  0
   -4.5151  -10.8281  -16.4183 H   0  0  0  0  0  0
   -5.3977   -5.1303  -18.8081 H   0  0  0  0  0  0
   -6.3808   -3.2702  -20.0700 H   0  0  0  0  0  0
   -8.8254   -3.2337  -20.5653 H   0  0  0  0  0  0
  -10.2558   -5.1305  -19.8505 H   0  0  0  0  0  0
   -9.2540   -7.0522  -18.6481 H   0  0  0  0  0  0
  1  2  2  0  0  0
  1  8  1  0  0  0
  1  4  1  0  0  0
  2  6  1  0  0  0
  2 15  1  0  0  0
  3 16  1  0  0  0
  3  5  1  0  0  0
  3  4  2  0  0  0
  4  7  1  0  0  0
  5 17  1  0  0  0
  5  6  2  0  0  0
  6  9  1  0  0  0
  7 18  1  0  0  0
  9 10  2  0  0  0
  9 14  1  0  0  0
 10 11  1  0  0  0
 10 19  1  0  0  0
 11 12  2  0  0  0
 11 20  1  0  0  0
 12 13  1  0  0  0
 12 21  1  0  0  0
 13 14  2  0  0  0
 13 22  1  0  0  0
 14 23  1  0  0  0
M  CHG  2   6   1   8  -1
M  END
> <s_m_entry_id>
67

> <s_m_entry_name>
glide-dock_SP_comt_chembl_pv.66

> <s_m_Source_Path>
/home/csk/Desktop/cluster/DUD-E-result/comt/glide-dock_SP_comt_chembl

> <s_m_Source_File>
glide-dock_SP_comt_chembl_pv.maegz

> <i_m_Source_File_Index>
66

> <chembl_id>
CHEMBL3425726

> <chembl_pref_name>
None

> <i_lp_mmshare_version>
53161

> <i_f3d_flags>
0

> <r_lp_tautomer_probability>
0.995892618013405

> <s_lp_Force_Field>
OPLS_2005

> <r_lp_Energy>
14.746355

> <b_lp_Chiralities_Consistent>
1

> <s_lp_Variant>
CHEMBL2023_lig25-1

> <s_i_glide_gridfile>
glide-grid_3bwm

> <i_i_glide_lignum>
34

> <i_i_glide_rotatable_bonds>
2

> <r_i_docking_score>
-8.41834181119422

> <r_i_glide_ligand_efficiency>
-0.601310129371016

> <r_i_glide_ligand_efficiency_sa>
-1.44924295539888

> <r_i_glide_ligand_efficiency_ln>
-2.31333036242225

> <r_i_glide_gscore>
-8.41834181119422

> <r_i_glide_lipo>
-1.66733596242663

> <r_i_glide_hbond>
0

> <r_i_glide_metal>
-2.3

> <r_i_glide_rewards>
-2.43276368181818

> <r_i_glide_evdw>
-17.3373947143555

> <r_i_glide_ecoul>
-10.7139368057251

> <r_i_glide_erotb>
0.455718089627127

> <r_i_glide_esite>
0

> <r_i_glide_emodel>
-64.7797558208628

> <r_i_glide_energy>
-28.0513315200806

> <r_i_glide_einternal>
3.10530090332031

> <i_i_glide_confnum>
2

> <i_i_glide_posenum>
352

> <r_i_glide_eff_state_penalty>
0

> <s_user_duplicate_titles>
CHEMBL2023_lig25,CHEMBL2023_lig25,CHEMBL2023_lig25,CHEMBL2023_lig25,CHEMBL2023_lig25

> <s_m_subgroup_title>
glide-dock_SP_comt_chembl_pv

> <s_m_subgroupid>
glide-dock_SP_comt_chembl_pv

> <b_m_subgroup_collapsed>
1

$$$$
CHEMBL2023_lig59
                    3D
 Schrodinger Suite 2021-1.
 43 46  0  0  1  0            999 V2000
   -2.4484  -13.1597  -20.9579 O   0  0  0  0  0  0
   -3.0138  -11.8787  -20.5078 S   0  0  0  0  0  0
   -2.1904  -10.6576  -20.5239 O   0  0  0  0  0  0
   -4.1780  -13.6223  -17.0146 C   0  0  0  0  0  0
   -3.6541  -13.3859  -18.2960 C   0  0  0  0  0  0
   -3.6846  -12.0891  -18.8470 C   0  0  0  0  0  0
   -4.7098  -12.5601  -16.2596 C   0  0  0  0  0  0
   -4.7327  -11.2567  -16.7852 C   0  0  0  0  0  0
   -4.2421  -11.0174  -18.1002 C   0  0  0  0  0  0
   -4.3608   -9.7060  -18.6135 C   0  0  0  0  0  0
   -4.9634   -8.7153  -17.8226 C   0  0  0  0  0  0
   -5.4143   -9.0630  -16.5418 C   0  0  0  0  0  0
   -5.2542  -10.2860  -16.0000 N   0  0  0  0  0  0
   -5.2540  -12.7964  -15.0230 O   0  0  0  0  0  0
   -4.4340  -11.5916  -21.4488 N   0  0  1  0  0  0
   -4.5707  -10.4264  -22.3247 C   0  0  0  0  0  0
   -5.2687  -10.9664  -23.5738 C   0  0  1  0  0  0
   -6.1443  -12.0981  -23.0241 C   0  0  0  0  0  0
   -5.2816  -12.6961  -21.9089 C   0  0  0  0  0  0
   -5.9365   -9.8738  -24.4035 C   0  0  0  0  0  0
   -7.3337   -9.6454  -24.3769 C   0  0  0  0  0  0
   -7.8985   -8.5956  -25.1272 C   0  0  0  0  0  0
   -7.0762   -7.7684  -25.9151 C   0  0  0  0  0  0
   -5.6874   -7.9930  -25.9541 C   0  0  0  0  0  0
   -5.1217   -9.0402  -25.2009 C   0  0  0  0  0  0
   -7.6188   -6.7564  -26.6319 F   0  0  0  0  0  0
   -4.1878  -14.6274  -16.6170 H   0  0  0  0  0  0
   -3.2457  -14.2124  -18.8592 H   0  0  0  0  0  0
   -4.0426   -9.4416  -19.6081 H   0  0  0  0  0  0
   -5.1024   -7.7098  -18.1946 H   0  0  0  0  0  0
   -5.9097   -8.3315  -15.9259 H   0  0  0  0  0  0
   -5.6867  -13.6580  -15.0441 H   0  0  0  0  0  0
   -3.6076   -9.9721  -22.5585 H   0  0  0  0  0  0
   -5.1920   -9.6844  -21.8231 H   0  0  0  0  0  0
   -4.5085  -11.4303  -24.2056 H   0  0  0  0  0  0
   -7.0565  -11.7169  -22.5715 H   0  0  0  0  0  0
   -6.4274  -12.8247  -23.7857 H   0  0  0  0  0  0
   -5.8768  -13.0938  -21.0865 H   0  0  0  0  0  0
   -4.6544  -13.4963  -22.3036 H   0  0  0  0  0  0
   -7.9960  -10.2497  -23.7772 H   0  0  0  0  0  0
   -8.9636   -8.4174  -25.0912 H   0  0  0  0  0  0
   -5.0558   -7.3563  -26.5569 H   0  0  0  0  0  0
   -4.0530   -9.1964  -25.2322 H   0  0  0  0  0  0
  1  2  2  0  0  0
  2  3  2  0  0  0
  2  6  1  0  0  0
  2 15  1  0  0  0
  4  5  2  0  0  0
  4  7  1  0  0  0
  4 27  1  0  0  0
  5  6  1  0  0  0
  5 28  1  0  0  0
  6  9  2  0  0  0
  7  8  2  0  0  0
  7 14  1  0  0  0
  8  9  1  0  0  0
  8 13  1  0  0  0
  9 10  1  0  0  0
 10 11  2  0  0  0
 10 29  1  0  0  0
 11 12  1  0  0  0
 11 30  1  0  0  0
 12 13  2  0  0  0
 12 31  1  0  0  0
 14 32  1  0  0  0
 15 16  1  0  0  0
 15 19  1  0  0  0
 16 17  1  0  0  0
 16 33  1  0  0  0
 16 34  1  0  0  0
 17 18  1  0  0  0
 17 20  1  0  0  0
 17 35  1  0  0  0
 18 19  1  0  0  0
 18 36  1  0  0  0
 18 37  1  0  0  0
 19 38  1  0  0  0
 19 39  1  0  0  0
 20 21  2  0  0  0
 20 25  1  0  0  0
 21 22  1  0  0  0
 21 40  1  0  0  0
 22 23  2  0  0  0
 22 41  1  0  0  0
 23 24  1  0  0  0
 23 26  1  0  0  0
 24 25  2  0  0  0
 24 42  1  0  0  0
 25 43  1  0  0  0
M  END
> <s_m_entry_id>
69

> <s_m_entry_name>
glide-dock_SP_comt_chembl_pv.68

> <s_m_Source_Path>
/home/csk/Desktop/cluster/DUD-E-result/comt/glide-dock_SP_comt_chembl

> <s_m_Source_File>
glide-dock_SP_comt_chembl_pv.maegz

> <i_m_Source_File_Index>
68

> <chembl_id>
CHEMBL4170443

> <chembl_pref_name>
None

> <i_lp_mmshare_version>
53161

> <i_f3d_flags>
0

> <r_lp_tautomer_probability>
1

> <s_lp_Force_Field>
OPLS_2005

> <r_lp_Energy>
22.796387

> <b_lp_Chiralities_Consistent>
1

> <s_lp_Variant>
CHEMBL2023_lig59-2

> <s_i_glide_gridfile>
glide-grid_3bwm

> <i_i_glide_lignum>
80

> <i_i_glide_rotatable_bonds>
4

> <r_i_docking_score>
-8.40358332096761

> <r_i_glide_ligand_efficiency>
-0.323214743114139

> <r_i_glide_ligand_efficiency_sa>
-0.957522404687035

> <r_i_glide_ligand_efficiency_ln>
-1.9735539685233

> <r_i_glide_gscore>
-8.40358332096761

> <r_i_glide_lipo>
-0.916977066159664

> <r_i_glide_hbond>
-0.436185602325865

> <r_i_glide_metal>
-2.3

> <r_i_glide_rewards>
-0.440730501761515

> <r_i_glide_evdw>
-28.4598941802979

> <r_i_glide_ecoul>
-21.8461437225342

> <r_i_glide_erotb>
0.41777071225897

> <r_i_glide_esite>
-0.0275445955845204

> <r_i_glide_emodel>
-80.2792217201078

> <r_i_glide_energy>
-50.306037902832

> <r_i_glide_einternal>
6.26301145553589

> <i_i_glide_confnum>
11

> <i_i_glide_posenum>
359

> <r_i_glide_eff_state_penalty>
0

> <s_user_duplicate_titles>
CHEMBL2023_lig59,CHEMBL2023_lig59,CHEMBL2023_lig59,CHEMBL2023_lig59,CHEMBL2023_lig59

> <s_m_subgroup_title>
glide-dock_SP_comt_chembl_pv

> <s_m_subgroupid>
glide-dock_SP_comt_chembl_pv

> <b_m_subgroup_collapsed>
1

$$$$
CHEMBL2023_lig120
                    3D
 Schrodinger Suite 2021-1.
 35 37  0  0  1  0            999 V2000
   -4.8069  -12.3886  -16.2738 C   0  0  0  0  0  0
   -4.7957  -11.0545  -16.6965 C   0  0  0  0  0  0
   -4.3067  -10.7310  -17.9840 C   0  0  0  0  0  0
   -4.3359  -13.4078  -17.1116 C   0  0  0  0  0  0
   -3.8361  -13.1368  -18.4044 C   0  0  0  0  0  0
   -3.8531  -11.7712  -18.8327 C   0  0  0  0  0  0
   -3.2445  -11.6513  -20.4851 S   0  0  0  0  0  0
   -2.8730  -13.3504  -20.5361 C   0  0  0  0  0  0
   -3.2539  -14.0183  -19.3926 C   0  0  0  0  0  0
   -3.0388  -15.6633  -19.0073 Cl  0  0  0  0  0  0
   -2.1629  -13.8275  -21.7273 C   0  0  0  0  0  0
   -1.7430  -13.0734  -22.6066 O   0  0  0  0  0  0
   -1.9825  -15.1581  -21.7207 O   0  0  0  0  0  0
   -5.2548  -12.6860  -15.0230 O   0  0  0  0  0  0
   -5.2539  -10.1094  -15.8231 O   0  0  0  0  0  0
   -4.2103   -9.3278  -18.4133 N   0  3  0  0  0  0
   -5.1069   -8.5582  -18.0861 O   0  0  0  0  0  0
   -3.2026   -8.9923  -19.0230 O   0  5  0  0  0  0
   -1.0417  -15.7658  -22.5903 C   0  0  0  0  0  0
    0.3321  -15.8156  -21.9490 C   0  0  0  0  0  0
    0.5572  -16.6554  -20.8383 C   0  0  0  0  0  0
    1.8242  -16.6910  -20.2247 C   0  0  0  0  0  0
    2.8689  -15.8860  -20.7178 C   0  0  0  0  0  0
    2.6456  -15.0438  -21.8245 C   0  0  0  0  0  0
    1.3790  -15.0092  -22.4408 C   0  0  0  0  0  0
   -4.3545  -14.4311  -16.7615 H   0  0  0  0  0  0
   -5.6541  -13.5628  -15.0443 H   0  0  0  0  0  0
   -5.4710   -9.2789  -16.2427 H   0  0  0  0  0  0
   -1.3682  -16.7868  -22.7888 H   0  0  0  0  0  0
   -0.9975  -15.2601  -23.5561 H   0  0  0  0  0  0
   -0.2442  -17.2687  -20.4520 H   0  0  0  0  0  0
    1.9942  -17.3359  -19.3753 H   0  0  0  0  0  0
    3.8395  -15.9097  -20.2442 H   0  0  0  0  0  0
    3.4458  -14.4221  -22.1985 H   0  0  0  0  0  0
    1.2110  -14.3559  -23.2849 H   0  0  0  0  0  0
  1 14  1  0  0  0
  1  2  2  0  0  0
  1  4  1  0  0  0
  2 15  1  0  0  0
  2  3  1  0  0  0
  3  6  2  0  0  0
  3 16  1  0  0  0
  4  5  2  0  0  0
  4 26  1  0  0  0
  5  9  1  0  0  0
  5  6  1  0  0  0
  6  7  1  0  0  0
  7  8  1  0  0  0
  8 11  1  0  0  0
  8  9  2  0  0  0
  9 10  1  0  0  0
 11 12  2  0  0  0
 11 13  1  0  0  0
 13 19  1  0  0  0
 14 27  1  0  0  0
 15 28  1  0  0  0
 16 17  2  0  0  0
 16 18  1  0  0  0
 19 20  1  0  0  0
 19 29  1  0  0  0
 19 30  1  0  0  0
 20 21  2  0  0  0
 20 25  1  0  0  0
 21 22  1  0  0  0
 21 31  1  0  0  0
 22 23  2  0  0  0
 22 32  1  0  0  0
 23 24  1  0  0  0
 23 33  1  0  0  0
 24 25  2  0  0  0
 24 34  1  0  0  0
 25 35  1  0  0  0
M  CHG  2  16   1  18  -1
M  END
> <s_m_entry_id>
70

> <s_m_entry_name>
glide-dock_SP_comt_chembl_pv.69

> <s_m_Source_Path>
/home/csk/Desktop/cluster/DUD-E-result/comt/glide-dock_SP_comt_chembl

> <s_m_Source_File>
glide-dock_SP_comt_chembl_pv.maegz

> <i_m_Source_File_Index>
69

> <chembl_id>
CHEMBL1089536

> <chembl_pref_name>
None

> <i_lp_mmshare_version>
53161

> <i_f3d_flags>
0

> <r_lp_tautomer_probability>
1

> <s_lp_Force_Field>
OPLS_2005

> <r_lp_Energy>
17.466392

> <b_lp_Chiralities_Consistent>
1

> <s_lp_Variant>
CHEMBL2023_lig120-1

> <s_i_glide_gridfile>
glide-grid_3bwm

> <i_i_glide_lignum>
145

> <i_i_glide_rotatable_bonds>
7

> <r_i_docking_score>
-8.40131539181686

> <r_i_glide_ligand_efficiency>
-0.336052615672674

> <r_i_glide_ligand_efficiency_sa>
-0.982623808145416

> <r_i_glide_ligand_efficiency_ln>
-1.99136351496653

> <r_i_glide_gscore>
-8.40131539181686

> <r_i_glide_lipo>
-1.08844042644518

> <r_i_glide_hbond>
0

> <r_i_glide_metal>
-2.3

> <r_i_glide_rewards>
-0.805978788906691

> <r_i_glide_evdw>
-30.2219429016113

> <r_i_glide_ecoul>
-20.604700088501

> <r_i_glide_erotb>
0.403393298762301

> <r_i_glide_esite>
-0.00848731687157603

> <r_i_glide_emodel>
-84.898113185913

> <r_i_glide_energy>
-50.8266429901123

> <r_i_glide_einternal>
1.99612534046173

> <i_i_glide_confnum>
4

> <i_i_glide_posenum>
46

> <r_i_glide_eff_state_penalty>
0

> <s_user_duplicate_titles>
CHEMBL2023_lig120,CHEMBL2023_lig120,CHEMBL2023_lig120,CHEMBL2023_lig120,CHEMBL2023_lig120,621465,621465,621465,621465,621465

> <s_m_subgroup_title>
glide-dock_SP_comt_chembl_pv

> <s_m_subgroupid>
glide-dock_SP_comt_chembl_pv

> <b_m_subgroup_collapsed>
1

$$$$
CHEMBL2023_lig121
                    3D
 Schrodinger Suite 2021-1.
 31 32  0  0  1  0            999 V2000
   -4.7932  -12.4066  -16.2708 C   0  0  0  0  0  0
   -4.7855  -11.0766  -16.6999 C   0  0  0  0  0  0
   -4.2934  -10.7701  -17.9928 C   0  0  0  0  0  0
   -4.3132  -13.4334  -17.0949 C   0  0  0  0  0  0
   -3.8226  -13.1804  -18.3941 C   0  0  0  0  0  0
   -3.8505  -11.8211  -18.8373 C   0  0  0  0  0  0
   -3.2717  -11.7247  -20.5044 S   0  0  0  0  0  0
   -2.9087  -13.4241  -20.5466 C   0  0  0  0  0  0
   -3.2529  -14.0732  -19.3815 C   0  0  0  0  0  0
   -3.0421  -15.7175  -18.9927 Cl  0  0  0  0  0  0
   -2.2624  -13.9163  -21.7684 C   0  0  0  0  0  0
   -2.1730  -13.2439  -22.7969 O   0  0  0  0  0  0
   -1.7468  -15.1515  -21.6213 O   0  0  0  0  0  0
   -5.2544  -12.6860  -15.0229 O   0  0  0  0  0  0
   -5.2540  -10.1335  -15.8231 O   0  0  0  0  0  0
   -4.1785   -9.3752  -18.4406 N   0  3  0  0  0  0
   -5.0267   -8.5704  -18.0709 O   0  0  0  0  0  0
   -3.1956   -9.0850  -19.1096 O   0  5  0  0  0  0
   -0.9961  -15.7661  -22.6609 C   0  0  0  0  0  0
   -1.2543  -17.2758  -22.5970 C   0  0  0  0  0  0
    0.4913  -15.4292  -22.4742 C   0  0  0  0  0  0
   -4.3260  -14.4518  -16.7370 H   0  0  0  0  0  0
   -5.6540  -13.5626  -15.0391 H   0  0  0  0  0  0
   -5.4580   -9.3003  -16.2447 H   0  0  0  0  0  0
   -1.3279  -15.4066  -23.6368 H   0  0  0  0  0  0
   -0.6941  -17.8045  -23.3681 H   0  0  0  0  0  0
   -2.3114  -17.4968  -22.7458 H   0  0  0  0  0  0
   -0.9640  -17.6874  -21.6299 H   0  0  0  0  0  0
    1.1013  -15.9032  -23.2437 H   0  0  0  0  0  0
    0.6611  -14.3542  -22.5381 H   0  0  0  0  0  0
    0.8547  -15.7680  -21.5037 H   0  0  0  0  0  0
  1 14  1  0  0  0
  1  2  2  0  0  0
  1  4  1  0  0  0
  2  3  1  0  0  0
  2 15  1  0  0  0
  3  6  2  0  0  0
  3 16  1  0  0  0
  4  5  2  0  0  0
  4 22  1  0  0  0
  5  6  1  0  0  0
  5  9  1  0  0  0
  6  7  1  0  0  0
  7  8  1  0  0  0
  8 11  1  0  0  0
  8  9  2  0  0  0
  9 10  1  0  0  0
 11 12  2  0  0  0
 11 13  1  0  0  0
 13 19  1  0  0  0
 14 23  1  0  0  0
 15 24  1  0  0  0
 16 17  2  0  0  0
 16 18  1  0  0  0
 19 20  1  0  0  0
 19 21  1  0  0  0
 19 25  1  0  0  0
 20 26  1  0  0  0
 20 27  1  0  0  0
 20 28  1  0  0  0
 21 29  1  0  0  0
 21 30  1  0  0  0
 21 31  1  0  0  0
M  CHG  2  16   1  18  -1
M  END
> <s_m_entry_id>
73

> <s_m_entry_name>
glide-dock_SP_comt_chembl_pv.72

> <s_m_Source_Path>
/home/csk/Desktop/cluster/DUD-E-result/comt/glide-dock_SP_comt_chembl

> <s_m_Source_File>
glide-dock_SP_comt_chembl_pv.maegz

> <i_m_Source_File_Index>
72

> <chembl_id>
CHEMBL1091204

> <chembl_pref_name>
None

> <i_lp_mmshare_version>
53161

> <i_f3d_flags>
0

> <r_lp_tautomer_probability>
1

> <s_lp_Force_Field>
OPLS_2005

> <r_lp_Energy>
11.618271

> <b_lp_Chiralities_Consistent>
1

> <s_lp_Variant>
CHEMBL2023_lig121-1

> <s_i_glide_gridfile>
glide-grid_3bwm

> <i_i_glide_lignum>
146

> <i_i_glide_rotatable_bonds>
6

> <r_i_docking_score>
-8.35156669952871

> <r_i_glide_ligand_efficiency>
-0.39769365235851

> <r_i_glide_ligand_efficiency_sa>
-1.09720663117171

> <r_i_glide_ligand_efficiency_ln>
-2.06490799052895

> <r_i_glide_gscore>
-8.35156669952871

> <r_i_glide_lipo>
-0.831736745192705

> <r_i_glide_hbond>
0

> <r_i_glide_metal>
-2.3

> <r_i_glide_rewards>
-1.14728438151702

> <r_i_glide_evdw>
-26.8162803649902

> <r_i_glide_ecoul>
-20.3956623077393

> <r_i_glide_erotb>
0.342136989342667

> <r_i_glide_esite>
-0.0145191977512557

> <r_i_glide_emodel>
-79.3712447879287

> <r_i_glide_energy>
-47.2119426727295

> <r_i_glide_einternal>
1.74623644351959

> <i_i_glide_confnum>
1

> <i_i_glide_posenum>
119

> <r_i_glide_eff_state_penalty>
0

> <s_user_duplicate_titles>
CHEMBL2023_lig121,CHEMBL2023_lig121,CHEMBL2023_lig121,CHEMBL2023_lig121,CHEMBL2023_lig121

> <s_m_subgroup_title>
glide-dock_SP_comt_chembl_pv

> <s_m_subgroupid>
glide-dock_SP_comt_chembl_pv

> <b_m_subgroup_collapsed>
1

$$$$
CHEMBL2023_lig22
                    3D
 Schrodinger Suite 2021-1.
 33 34  0  0  1  0            999 V2000
   -4.8780  -12.2612  -16.2770 C   0  0  0  0  0  0
   -4.4540  -13.1866  -17.2562 C   0  0  0  0  0  0
   -4.4585  -10.4831  -17.8944 C   0  0  0  0  0  0
   -4.9312  -10.9009  -16.6454 C   0  0  0  0  0  0
   -3.9544  -11.4261  -18.8096 C   0  0  0  0  0  0
   -4.0291  -12.7610  -18.4826 N   0  3  0  0  0  0
   -5.4586   -9.9676  -15.8230 O   0  0  0  0  0  0
   -5.2540  -12.6860  -15.0230 O   0  5  0  0  0  0
   -3.2982  -10.9123  -20.0984 C   0  0  0  0  0  0
   -2.8540   -9.5688  -20.0284 O   0  0  0  0  0  0
   -3.5997  -13.7687  -19.4346 C   0  0  0  0  0  0
   -2.7407  -14.8122  -19.0230 C   0  0  0  0  0  0
   -2.1277  -15.6461  -19.9768 C   0  0  0  0  0  0
   -2.4337  -15.4860  -21.3425 C   0  0  0  0  0  0
   -3.4044  -14.5490  -21.7466 C   0  0  0  0  0  0
   -3.9995  -13.7030  -20.7909 C   0  0  0  0  0  0
   -1.1393  -16.7056  -19.5345 C   0  0  0  0  0  0
   -3.7917  -14.4425  -23.2070 C   0  0  0  0  0  0
   -4.4608  -14.2521  -17.0715 H   0  0  0  0  0  0
   -4.4745   -9.4302  -18.1346 H   0  0  0  0  0  0
   -5.6757   -9.1395  -16.2357 H   0  0  0  0  0  0
   -4.0034  -10.9654  -20.9269 H   0  0  0  0  0  0
   -2.4290  -11.5207  -20.3501 H   0  0  0  0  0  0
   -3.6105   -9.0025  -20.0946 H   0  0  0  0  0  0
   -2.4828  -14.9500  -17.9854 H   0  0  0  0  0  0
   -1.9651  -16.1255  -22.0776 H   0  0  0  0  0  0
   -4.7359  -12.9834  -21.1152 H   0  0  0  0  0  0
   -0.3852  -16.8797  -20.3027 H   0  0  0  0  0  0
   -0.6243  -16.4005  -18.6230 H   0  0  0  0  0  0
   -1.6542  -17.6468  -19.3406 H   0  0  0  0  0  0
   -3.7922  -15.4264  -23.6776 H   0  0  0  0  0  0
   -4.7888  -14.0159  -23.3201 H   0  0  0  0  0  0
   -3.0833  -13.8073  -23.7393 H   0  0  0  0  0  0
  1  2  2  0  0  0
  1  8  1  0  0  0
  1  4  1  0  0  0
  2  6  1  0  0  0
  2 19  1  0  0  0
  3 20  1  0  0  0
  3  5  1  0  0  0
  3  4  2  0  0  0
  4  7  1  0  0  0
  5  9  1  0  0  0
  5  6  2  0  0  0
  6 11  1  0  0  0
  7 21  1  0  0  0
  9 10  1  0  0  0
  9 22  1  0  0  0
  9 23  1  0  0  0
 10 24  1  0  0  0
 11 12  2  0  0  0
 11 16  1  0  0  0
 12 13  1  0  0  0
 12 25  1  0  0  0
 13 14  2  0  0  0
 13 17  1  0  0  0
 14 15  1  0  0  0
 14 26  1  0  0  0
 15 16  2  0  0  0
 15 18  1  0  0  0
 16 27  1  0  0  0
 17 28  1  0  0  0
 17 29  1  0  0  0
 17 30  1  0  0  0
 18 31  1  0  0  0
 18 32  1  0  0  0
 18 33  1  0  0  0
M  CHG  2   6   1   8  -1
M  END
> <s_m_entry_id>
77

> <s_m_entry_name>
glide-dock_SP_comt_chembl_pv.76

> <s_m_Source_Path>
/home/csk/Desktop/cluster/DUD-E-result/comt/glide-dock_SP_comt_chembl

> <s_m_Source_File>
glide-dock_SP_comt_chembl_pv.maegz

> <i_m_Source_File_Index>
76

> <chembl_id>
CHEMBL3425729

> <chembl_pref_name>
None

> <i_lp_mmshare_version>
53161

> <i_f3d_flags>
0

> <r_lp_tautomer_probability>
0.995892618013405

> <s_lp_Force_Field>
OPLS_2005

> <r_lp_Energy>
19.124661

> <b_lp_Chiralities_Consistent>
1

> <s_lp_Variant>
CHEMBL2023_lig22-1

> <s_i_glide_gridfile>
glide-grid_3bwm

> <i_i_glide_lignum>
31

> <i_i_glide_rotatable_bonds>
4

> <r_i_docking_score>
-8.30122187050151

> <r_i_glide_ligand_efficiency>
-0.46117899280564

> <r_i_glide_ligand_efficiency_sa>
-1.20863087542084

> <r_i_glide_ligand_efficiency_ln>
-2.13378627727615

> <r_i_glide_gscore>
-8.30122187050151

> <r_i_glide_lipo>
-0.718198140834261

> <r_i_glide_hbond>
-0.418430619849222

> <r_i_glide_metal>
-2.3

> <r_i_glide_rewards>
-2.03676954545455

> <r_i_glide_evdw>
-17.4091339111328

> <r_i_glide_ecoul>
-16.9064712524414

> <r_i_glide_erotb>
0.578603819059368

> <r_i_glide_esite>
0

> <r_i_glide_emodel>
-69.1459908676493

> <r_i_glide_energy>
-34.3156051635742

> <r_i_glide_einternal>
3.0678653717041

> <i_i_glide_confnum>
5

> <i_i_glide_posenum>
192

> <r_i_glide_eff_state_penalty>
0

> <s_user_duplicate_titles>
CHEMBL2023_lig22,CHEMBL2023_lig22,CHEMBL2023_lig22,CHEMBL2023_lig22,CHEMBL2023_lig22

> <s_m_subgroup_title>
glide-dock_SP_comt_chembl_pv

> <s_m_subgroupid>
glide-dock_SP_comt_chembl_pv

> <b_m_subgroup_collapsed>
1

$$$$
CHEMBL2023_lig115
                    3D
 Schrodinger Suite 2021-1.
 42 43  0  0  1  0            999 V2000
   -4.7974  -12.3711  -16.2713 C   0  0  0  0  0  0
   -4.7924  -11.0343  -16.6919 C   0  0  0  0  0  0
   -4.3080  -10.6981  -17.9775 C   0  0  0  0  0  0
   -4.3110  -13.3771  -17.1171 C   0  0  0  0  0  0
   -3.8241  -13.0957  -18.4132 C   0  0  0  0  0  0
   -3.8572  -11.7295  -18.8351 C   0  0  0  0  0  0
   -3.2744  -11.5941  -20.4937 S   0  0  0  0  0  0
   -2.9171  -13.2939  -20.5713 C   0  0  0  0  0  0
   -3.2485  -13.9673  -19.4136 C   0  0  0  0  0  0
   -2.9960  -15.6069  -19.0230 Cl  0  0  0  0  0  0
   -2.2958  -13.7614  -21.8148 C   0  0  0  0  0  0
   -2.2339  -15.1034  -21.8821 O   0  0  0  0  0  0
   -1.8818  -12.9920  -22.6858 O   0  0  0  0  0  0
   -5.2540  -12.6860  -15.0230 O   0  0  0  0  0  0
   -5.2535  -10.0909  -15.8230 O   0  0  0  0  0  0
   -4.2179   -9.2913  -18.3993 N   0  3  0  0  0  0
   -3.2201   -8.9512  -19.0231 O   0  0  0  0  0  0
   -5.1134   -8.5249  -18.0615 O   0  5  0  0  0  0
   -1.5019  -15.6207  -22.9533 C   0  0  0  0  0  0
   -1.3551  -17.0043  -22.8575 O   0  0  0  0  0  0
   -0.6045  -17.4510  -21.8132 C   0  0  0  0  0  0
   -0.6925  -18.9901  -21.7109 C   0  0  2  0  0  0
    0.0677  -16.7404  -21.0609 O   0  0  0  0  0  0
   -2.0540  -19.4875  -21.9417 N   0  0  0  0  0  0
   -0.1186  -19.5434  -20.3768 C   0  0  0  0  0  0
    0.1112  -21.0625  -20.4429 C   0  0  0  0  0  0
   -0.9475  -19.1673  -19.1336 C   0  0  0  0  0  0
   -4.3140  -14.4018  -16.7768 H   0  0  0  0  0  0
   -5.6537  -13.5624  -15.0547 H   0  0  0  0  0  0
   -5.4707   -9.2605  -16.2429 H   0  0  0  0  0  0
   -0.5141  -15.1558  -23.0069 H   0  0  0  0  0  0
   -2.0317  -15.4045  -23.8822 H   0  0  0  0  0  0
   -0.0690  -19.3889  -22.5116 H   0  0  0  0  0  0
   -2.7253  -19.0052  -21.3534 H   0  0  0  0  0  0
   -2.3526  -19.2924  -22.8865 H   0  0  0  0  0  0
    0.8698  -19.1014  -20.2389 H   0  0  0  0  0  0
   -0.8290  -21.6032  -20.5544 H   0  0  0  0  0  0
    0.5959  -21.4260  -19.5363 H   0  0  0  0  0  0
    0.7496  -21.3279  -21.2858 H   0  0  0  0  0  0
   -1.9369  -19.6239  -19.1601 H   0  0  0  0  0  0
   -0.4540  -19.5052  -18.2230 H   0  0  0  0  0  0
   -1.0808  -18.0900  -19.0395 H   0  0  0  0  0  0
  1 14  1  0  0  0
  1  2  2  0  0  0
  1  4  1  0  0  0
  2 15  1  0  0  0
  2  3  1  0  0  0
  3  6  2  0  0  0
  3 16  1  0  0  0
  4  5  2  0  0  0
  4 28  1  0  0  0
  5  9  1  0  0  0
  5  6  1  0  0  0
  6  7  1  0  0  0
  7  8  1  0  0  0
  8 11  1  0  0  0
  8  9  2  0  0  0
  9 10  1  0  0  0
 11 13  2  0  0  0
 11 12  1  0  0  0
 12 19  1  0  0  0
 14 29  1  0  0  0
 15 30  1  0  0  0
 16 17  2  0  0  0
 16 18  1  0  0  0
 19 20  1  0  0  0
 19 31  1  0  0  0
 19 32  1  0  0  0
 20 21  1  0  0  0
 21 22  1  0  0  0
 21 23  2  0  0  0
 22 24  1  0  0  0
 22 25  1  0  0  0
 22 33  1  0  0  0
 24 34  1  0  0  0
 24 35  1  0  0  0
 25 26  1  0  0  0
 25 27  1  0  0  0
 25 36  1  0  0  0
 26 37  1  0  0  0
 26 38  1  0  0  0
 26 39  1  0  0  0
 27 40  1  0  0  0
 27 41  1  0  0  0
 27 42  1  0  0  0
M  CHG  2  16   1  18  -1
M  END
> <s_m_entry_id>
78

> <s_m_entry_name>
glide-dock_SP_comt_chembl_pv.77

> <s_m_Source_Path>
/home/csk/Desktop/cluster/DUD-E-result/comt/glide-dock_SP_comt_chembl

> <s_m_Source_File>
glide-dock_SP_comt_chembl_pv.maegz

> <i_m_Source_File_Index>
77

> <chembl_id>
CHEMBL1091982

> <chembl_pref_name>
None

> <i_lp_mmshare_version>
53161

> <i_f3d_flags>
0

> <r_lp_tautomer_probability>
1

> <s_lp_Force_Field>
OPLS_2005

> <r_lp_Energy>
18.487931

> <b_lp_Chiralities_Consistent>
1

> <s_lp_Variant>
CHEMBL2023_lig115-1

> <s_i_glide_gridfile>
glide-grid_3bwm

> <i_i_glide_lignum>
137

> <i_i_glide_rotatable_bonds>
10

> <r_i_docking_score>
-8.29707177263629

> <r_i_glide_ligand_efficiency>
-0.307298954542085

> <r_i_glide_ligand_efficiency_sa>
-0.921896862613447

> <r_i_glide_ligand_efficiency_ln>
-1.931421520751

> <r_i_glide_gscore>
-8.29707177263629

> <r_i_glide_lipo>
-1.06958796231881

> <r_i_glide_hbond>
-0.246897745608341

> <r_i_glide_metal>
-2.3

> <r_i_glide_rewards>
-0.54946985287458

> <r_i_glide_evdw>
-29.9962787628174

> <r_i_glide_ecoul>
-22.0079860687256

> <r_i_glide_erotb>
0.676546673581813

> <r_i_glide_esite>
-0.00665103696665783

> <r_i_glide_emodel>
-84.238836493605

> <r_i_glide_energy>
-52.004264831543

> <r_i_glide_einternal>
6.83878087997437

> <i_i_glide_confnum>
71

> <i_i_glide_posenum>
71

> <r_i_glide_eff_state_penalty>
0

> <s_user_duplicate_titles>
CHEMBL2023_lig115,CHEMBL2023_lig115,CHEMBL2023_lig115,CHEMBL2023_lig115,CHEMBL2023_lig115

> <s_m_subgroup_title>
glide-dock_SP_comt_chembl_pv

> <s_m_subgroupid>
glide-dock_SP_comt_chembl_pv

> <b_m_subgroup_collapsed>
1

$$$$
CHEMBL2023_lig8
                    3D
 Schrodinger Suite 2021-1.
 37 39  0  0  1  0            999 V2000
   -4.5329   -9.1589  -17.8696 C   0  0  0  0  0  0
   -3.9339   -9.5081  -19.0230 C   0  0  0  0  0  0
   -4.4295  -11.5739  -17.2246 C   0  0  0  0  0  0
   -4.8513  -10.2043  -16.8854 C   0  0  0  0  0  0
   -3.8420  -11.7960  -18.4219 C   0  0  0  0  0  0
   -3.6190  -10.8180  -19.3954 N   0  0  0  0  0  0
   -5.4063   -9.9508  -15.8230 O   0  0  0  0  0  0
   -4.8540   -7.8933  -17.5734 O   0  0  0  0  0  0
   -3.4014  -11.1722  -20.7428 C   0  0  0  0  0  0
   -2.5615  -12.2550  -21.0863 C   0  0  0  0  0  0
   -2.3640  -12.6085  -22.4339 C   0  0  0  0  0  0
   -3.0261  -11.9002  -23.4537 C   0  0  0  0  0  0
   -3.8941  -10.8340  -23.1375 C   0  0  0  0  0  0
   -4.0540  -10.4723  -21.7835 C   0  0  0  0  0  0
   -4.6436  -10.1213  -24.1853 C   0  0  0  0  0  0
   -4.0006   -9.6561  -25.3537 C   0  0  0  0  0  0
   -4.7216   -8.9608  -26.3442 C   0  0  0  0  0  0
   -6.0992   -8.7257  -26.1786 C   0  0  0  0  0  0
   -6.7541   -9.1909  -25.0235 C   0  0  0  0  0  0
   -6.0293   -9.8860  -24.0364 C   0  0  0  0  0  0
   -4.6963  -12.8255  -16.2834 B   0  0  0  0  0  0
   -5.2540  -12.6860  -15.0231 O   0  0  0  0  0  0
   -4.4540  -14.0693  -16.7740 O   0  0  0  0  0  0
   -3.6540   -8.7603  -19.7499 H   0  0  0  0  0  0
   -3.5443  -12.7912  -18.7155 H   0  0  0  0  0  0
   -5.2937   -7.8920  -16.7320 H   0  0  0  0  0  0
   -2.0540  -12.8184  -20.3196 H   0  0  0  0  0  0
   -1.7125  -13.4324  -22.6858 H   0  0  0  0  0  0
   -2.8837  -12.1949  -24.4833 H   0  0  0  0  0  0
   -4.7288   -9.6638  -21.5484 H   0  0  0  0  0  0
   -2.9420   -9.8223  -25.4897 H   0  0  0  0  0  0
   -4.2163   -8.6050  -27.2299 H   0  0  0  0  0  0
   -6.6528   -8.1903  -26.9361 H   0  0  0  0  0  0
   -7.8116   -9.0128  -24.8923 H   0  0  0  0  0  0
   -6.5455  -10.2360  -23.1538 H   0  0  0  0  0  0
   -5.7020  -13.5060  -14.8050 H   0  0  0  0  0  0
   -5.1219  -14.6859  -16.4626 H   0  0  0  0  0  0
  1  2  2  0  0  0
  1  4  1  0  0  0
  1  8  1  0  0  0
  2  6  1  0  0  0
  2 24  1  0  0  0
  3  5  2  0  0  0
  3  4  1  0  0  0
  3 21  1  0  0  0
  4  7  2  0  0  0
  5  6  1  0  0  0
  5 25  1  0  0  0
  6  9  1  0  0  0
  8 26  1  0  0  0
  9 10  2  0  0  0
  9 14  1  0  0  0
 10 11  1  0  0  0
 10 27  1  0  0  0
 11 12  2  0  0  0
 11 28  1  0  0  0
 12 13  1  0  0  0
 12 29  1  0  0  0
 13 14  2  0  0  0
 13 15  1  0  0  0
 14 30  1  0  0  0
 15 16  2  0  0  0
 15 20  1  0  0  0
 16 17  1  0  0  0
 16 31  1  0  0  0
 17 18  2  0  0  0
 17 32  1  0  0  0
 18 19  1  0  0  0
 18 33  1  0  0  0
 19 20  2  0  0  0
 19 34  1  0  0  0
 20 35  1  0  0  0
 21 22  1  0  0  0
 21 23  1  0  0  0
 22 36  1  0  0  0
 23 37  1  0  0  0
M  END
> <s_m_entry_id>
82

> <s_m_entry_name>
glide-dock_SP_comt_chembl_pv.81

> <s_m_Source_Path>
/home/csk/Desktop/cluster/DUD-E-result/comt/glide-dock_SP_comt_chembl

> <s_m_Source_File>
glide-dock_SP_comt_chembl_pv.maegz

> <i_m_Source_File_Index>
81

> <chembl_id>
CHEMBL3425744

> <chembl_pref_name>
None

> <i_lp_mmshare_version>
53161

> <i_f3d_flags>
0

> <r_lp_tautomer_probability>
1

> <s_lp_Force_Field>
OPLS_2005

> <r_lp_Energy>
20.573412

> <b_lp_Chiralities_Consistent>
1

> <s_lp_Variant>
CHEMBL2023_lig8-1

> <s_i_glide_gridfile>
glide-grid_3bwm

> <i_i_glide_lignum>
12

> <i_i_glide_rotatable_bonds>
6

> <r_i_docking_score>
-8.28430323485864

> <r_i_glide_ligand_efficiency>
-0.360187097167767

> <r_i_glide_ligand_efficiency_sa>
-1.02432419113341

> <r_i_glide_ligand_efficiency_ln>
-2.00321964009744

> <r_i_glide_gscore>
-8.28430323485864

> <r_i_glide_lipo>
-0.698703248128643

> <r_i_glide_hbond>
0

> <r_i_glide_metal>
-2.3

> <r_i_glide_rewards>
-1.31517027272727

> <r_i_glide_evdw>
-23.2928905487061

> <r_i_glide_ecoul>
-21.9577407836914

> <r_i_glide_erotb>
0.587875930986292

> <r_i_glide_esite>
-0.1

> <r_i_glide_emodel>
-73.210088141422

> <r_i_glide_energy>
-45.2506313323975

> <r_i_glide_einternal>
7.32751321792603

> <i_i_glide_confnum>
15

> <i_i_glide_posenum>
234

> <r_i_glide_eff_state_penalty>
0

> <s_user_duplicate_titles>
CHEMBL2023_lig8,CHEMBL2023_lig8,CHEMBL2023_lig8,CHEMBL2023_lig8,CHEMBL2023_lig8

> <s_m_subgroup_title>
glide-dock_SP_comt_chembl_pv

> <s_m_subgroupid>
glide-dock_SP_comt_chembl_pv

> <b_m_subgroup_collapsed>
1

$$$$
CHEMBL2023_lig114
                    3D
 Schrodinger Suite 2021-1.
 31 33  0  0  1  0            999 V2000
   -4.7611  -12.4081  -16.2572 C   0  0  0  0  0  0
   -4.7759  -11.0801  -16.6933 C   0  0  0  0  0  0
   -4.3145  -10.7768  -17.9963 C   0  0  0  0  0  0
   -4.2472  -13.4321  -17.0678 C   0  0  0  0  0  0
   -3.8106  -13.1829  -18.3878 C   0  0  0  0  0  0
   -3.9023  -11.8313  -18.8490 C   0  0  0  0  0  0
   -3.4779  -11.7470  -20.5603 S   0  0  0  0  0  0
   -3.1887  -13.4623  -20.6300 C   0  0  0  0  0  0
   -3.2749  -14.0708  -19.4006 C   0  0  0  0  0  0
   -2.9558  -15.6989  -19.0227 Cl  0  0  0  0  0  0
   -2.9141  -14.0652  -21.9363 C   0  0  0  0  0  0
   -2.3859  -15.1695  -22.0623 O   0  0  0  0  0  0
   -3.3833  -13.3240  -22.9616 O   0  0  0  0  0  0
   -5.2540  -12.6866  -15.0230 O   0  0  0  0  0  0
   -5.2528  -10.1357  -15.8230 O   0  0  0  0  0  0
   -4.2257   -9.3844  -18.4574 N   0  3  0  0  0  0
   -5.0835   -8.5906  -18.0879 O   0  0  0  0  0  0
   -3.2514   -9.0853  -19.1373 O   0  5  0  0  0  0
   -3.4557  -13.8689  -24.2707 C   0  0  0  0  0  0
   -4.7273  -14.6742  -24.4636 C   0  0  0  0  0  0
   -5.8879  -14.2198  -23.9333 O   0  0  0  0  0  0
   -6.8588  -15.1391  -24.2217 C   0  0  0  0  0  0
   -6.2571  -16.1505  -24.9176 O   0  0  0  0  0  0
   -4.9461  -15.8407  -25.0451 C   0  0  0  0  0  0
   -8.0486  -15.0726  -23.9082 O   0  0  0  0  0  0
   -4.2421  -14.4487  -16.6984 H   0  0  0  0  0  0
   -5.6548  -13.5637  -15.0462 H   0  0  0  0  0  0
   -5.4767   -9.3105  -16.2496 H   0  0  0  0  0  0
   -2.5825  -14.4851  -24.4925 H   0  0  0  0  0  0
   -3.4550  -13.0498  -24.9892 H   0  0  0  0  0  0
   -4.3049  -16.5428  -25.5591 H   0  0  0  0  0  0
  1 14  1  0  0  0
  1  2  2  0  0  0
  1  4  1  0  0  0
  2 15  1  0  0  0
  2  3  1  0  0  0
  3 16  1  0  0  0
  3  6  2  0  0  0
  4  5  2  0  0  0
  4 26  1  0  0  0
  5  9  1  0  0  0
  5  6  1  0  0  0
  6  7  1  0  0  0
  7  8  1  0  0  0
  8  9  2  0  0  0
  8 11  1  0  0  0
  9 10  1  0  0  0
 11 12  2  0  0  0
 11 13  1  0  0  0
 13 19  1  0  0  0
 14 27  1  0  0  0
 15 28  1  0  0  0
 16 17  2  0  0  0
 16 18  1  0  0  0
 19 20  1  0  0  0
 19 29  1  0  0  0
 19 30  1  0  0  0
 20 21  1  0  0  0
 20 24  2  0  0  0
 21 22  1  0  0  0
 22 23  1  0  0  0
 22 25  2  0  0  0
 23 24  1  0  0  0
 24 31  1  0  0  0
M  CHG  2  16   1  18  -1
M  END
> <s_m_entry_id>
84

> <s_m_entry_name>
glide-dock_SP_comt_chembl_pv.83

> <s_m_Source_Path>
/home/csk/Desktop/cluster/DUD-E-result/comt/glide-dock_SP_comt_chembl

> <s_m_Source_File>
glide-dock_SP_comt_chembl_pv.maegz

> <i_m_Source_File_Index>
83

> <chembl_id>
CHEMBL1091983

> <chembl_pref_name>
None

> <i_lp_mmshare_version>
53161

> <i_f3d_flags>
0

> <r_lp_tautomer_probability>
1

> <s_lp_Force_Field>
OPLS_2005

> <r_lp_Energy>
15.577892

> <b_lp_Chiralities_Consistent>
1

> <s_lp_Variant>
CHEMBL2023_lig114-1

> <s_i_glide_gridfile>
glide-grid_3bwm

> <i_i_glide_lignum>
136

> <i_i_glide_rotatable_bonds>
7

> <r_i_docking_score>
-8.24541371988297

> <r_i_glide_ligand_efficiency>
-0.329816548795319

> <r_i_glide_ligand_efficiency_sa>
-0.964389437998912

> <r_i_glide_ligand_efficiency_ln>
-1.9544101467221

> <r_i_glide_gscore>
-8.24541371988297

> <r_i_glide_lipo>
-0.849125770707089

> <r_i_glide_hbond>
0

> <r_i_glide_metal>
-2.3

> <r_i_glide_rewards>
-0.763460122843493

> <r_i_glide_evdw>
-29.495189666748

> <r_i_glide_ecoul>
-21.5745792388916

> <r_i_glide_erotb>
0.388709567825059

> <r_i_glide_esite>
-0.010591024986304

> <r_i_glide_emodel>
-84.6547122071378

> <r_i_glide_energy>
-51.0697689056396

> <r_i_glide_einternal>
1.40976452827454

> <i_i_glide_confnum>
9

> <i_i_glide_posenum>
197

> <r_i_glide_eff_state_penalty>
0

> <s_user_duplicate_titles>
CHEMBL2023_lig114,CHEMBL2023_lig114,CHEMBL2023_lig114,CHEMBL2023_lig114,CHEMBL2023_lig114

> <s_m_subgroup_title>
glide-dock_SP_comt_chembl_pv

> <s_m_subgroupid>
glide-dock_SP_comt_chembl_pv

> <b_m_subgroup_collapsed>
1

$$$$
CHEMBL2023_lig74
                    3D
 Schrodinger Suite 2021-1.
 33 35  0  0  1  0            999 V2000
   -1.7682  -12.3479  -21.0262 O   0  0  0  0  0  0
   -2.7404  -11.2860  -20.7315 S   0  0  0  0  0  0
   -2.2901   -9.8877  -20.6776 O   0  0  0  0  0  0
   -4.0759  -13.5429  -17.6546 C   0  0  0  0  0  0
   -3.5542  -13.0855  -18.8668 C   0  0  0  0  0  0
   -3.5818  -11.7200  -19.1882 C   0  0  0  0  0  0
   -4.6030  -12.6361  -16.7128 C   0  0  0  0  0  0
   -4.6801  -11.2616  -17.0229 C   0  0  0  0  0  0
   -4.1881  -10.8017  -18.2843 C   0  0  0  0  0  0
   -4.3571   -9.4333  -18.5845 C   0  0  0  0  0  0
   -5.0128   -8.5987  -17.6674 C   0  0  0  0  0  0
   -5.4636   -9.1498  -16.4618 C   0  0  0  0  0  0
   -5.2539  -10.4333  -16.1087 N   0  0  0  0  0  0
   -5.0928  -13.0859  -15.5117 O   0  0  0  0  0  0
   -3.9588  -11.4130  -21.9441 N   0  0  0  0  0  0
   -4.0625  -14.8704  -17.4230 F   0  0  0  0  0  0
   -4.5577  -12.6905  -22.3383 C   0  0  0  0  0  0
   -5.9388  -12.3204  -22.8851 C   0  0  0  0  0  0
   -5.7700  -10.8792  -23.3595 C   0  0  0  0  0  0
   -4.7815  -10.2859  -22.3541 C   0  0  0  0  0  0
   -3.1196  -13.8017  -19.5484 H   0  0  0  0  0  0
   -4.0534   -9.0028  -19.5200 H   0  0  0  0  0  0
   -5.1931   -7.5557  -17.8899 H   0  0  0  0  0  0
   -6.0108   -8.5523  -15.7540 H   0  0  0  0  0  0
   -5.5514  -13.9364  -15.6177 H   0  0  0  0  0  0
   -4.6310  -13.3747  -21.4933 H   0  0  0  0  0  0
   -3.9348  -13.1534  -23.1047 H   0  0  0  0  0  0
   -6.6750  -12.3551  -22.0809 H   0  0  0  0  0  0
   -6.2737  -12.9912  -23.6766 H   0  0  0  0  0  0
   -5.3287  -10.8690  -24.3567 H   0  0  0  0  0  0
   -6.7112  -10.3310  -23.4011 H   0  0  0  0  0  0
   -4.1708   -9.4948  -22.7896 H   0  0  0  0  0  0
   -5.2750   -9.8864  -21.4735 H   0  0  0  0  0  0
  1  2  2  0  0  0
  2  3  2  0  0  0
  2  6  1  0  0  0
  2 15  1  0  0  0
  4  5  2  0  0  0
  4  7  1  0  0  0
  4 16  1  0  0  0
  5  6  1  0  0  0
  5 21  1  0  0  0
  6  9  2  0  0  0
  7  8  2  0  0  0
  7 14  1  0  0  0
  8  9  1  0  0  0
  8 13  1  0  0  0
  9 10  1  0  0  0
 10 11  2  0  0  0
 10 22  1  0  0  0
 11 12  1  0  0  0
 11 23  1  0  0  0
 12 13  2  0  0  0
 12 24  1  0  0  0
 14 25  1  0  0  0
 15 17  1  0  0  0
 15 20  1  0  0  0
 17 18  1  0  0  0
 17 26  1  0  0  0
 17 27  1  0  0  0
 18 19  1  0  0  0
 18 28  1  0  0  0
 18 29  1  0  0  0
 19 20  1  0  0  0
 19 30  1  0  0  0
 19 31  1  0  0  0
 20 32  1  0  0  0
 20 33  1  0  0  0
M  END
> <s_m_entry_id>
85

> <s_m_entry_name>
glide-dock_SP_comt_chembl_pv.84

> <s_m_Source_Path>
/home/csk/Desktop/cluster/DUD-E-result/comt/glide-dock_SP_comt_chembl

> <s_m_Source_File>
glide-dock_SP_comt_chembl_pv.maegz

> <i_m_Source_File_Index>
84

> <chembl_id>
CHEMBL4172614

> <chembl_pref_name>
None

> <i_lp_mmshare_version>
53161

> <i_f3d_flags>
0

> <r_lp_tautomer_probability>
1

> <s_lp_Force_Field>
OPLS_2005

> <r_lp_Energy>
16.403551

> <b_lp_Chiralities_Consistent>
1

> <s_lp_Variant>
CHEMBL2023_lig74-1

> <s_i_glide_gridfile>
glide-grid_3bwm

> <i_i_glide_lignum>
96

> <i_i_glide_rotatable_bonds>
3

> <r_i_docking_score>
-8.2379904911977

> <r_i_glide_ligand_efficiency>
-0.411899524559885

> <r_i_glide_ligand_efficiency_sa>
-1.11806732461594

> <r_i_glide_ligand_efficiency_ln>
-2.06169731283584

> <r_i_glide_gscore>
-8.2379904911977

> <r_i_glide_lipo>
-0.703049629810506

> <r_i_glide_hbond>
-0.343618436044217

> <r_i_glide_metal>
-1.86526262048909

> <r_i_glide_rewards>
-1.41015262433094

> <r_i_glide_evdw>
-21.0864906311035

> <r_i_glide_ecoul>
-21.3845901489258

> <r_i_glide_erotb>
0.417247190753019

> <r_i_glide_esite>
-0.0711413173819205

> <r_i_glide_emodel>
-64.3899638927394

> <r_i_glide_energy>
-42.4710807800293

> <r_i_glide_einternal>
13.2856941223145

> <i_i_glide_confnum>
26

> <i_i_glide_posenum>
145

> <r_i_glide_eff_state_penalty>
0

> <s_user_duplicate_titles>
CHEMBL2023_lig74,CHEMBL2023_lig74,CHEMBL2023_lig74,CHEMBL2023_lig74,CHEMBL2023_lig74

> <s_m_subgroup_title>
glide-dock_SP_comt_chembl_pv

> <s_m_subgroupid>
glide-dock_SP_comt_chembl_pv

> <b_m_subgroup_collapsed>
1

$$$$
CHEMBL2023_lig123
                    3D
 Schrodinger Suite 2021-1.
 31 32  0  0  1  0            999 V2000
   -4.7913  -12.4052  -16.2693 C   0  0  0  0  0  0
   -4.7835  -11.0753  -16.6991 C   0  0  0  0  0  0
   -4.2892  -10.7693  -17.9913 C   0  0  0  0  0  0
   -4.3090  -13.4325  -17.0910 C   0  0  0  0  0  0
   -3.8205  -13.1810  -18.3905 C   0  0  0  0  0  0
   -3.8459  -11.8218  -18.8341 C   0  0  0  0  0  0
   -3.2667  -11.7281  -20.5009 S   0  0  0  0  0  0
   -2.9231  -13.4324  -20.5487 C   0  0  0  0  0  0
   -3.2538  -14.0769  -19.3767 C   0  0  0  0  0  0
   -3.0358  -15.7175  -18.9764 Cl  0  0  0  0  0  0
   -2.3130  -13.9368  -21.7848 C   0  0  0  0  0  0
   -2.0553  -15.2569  -21.7375 O   0  0  0  0  0  0
   -2.0522  -13.2119  -22.7465 O   0  0  0  0  0  0
   -5.2540  -12.6863  -15.0230 O   0  0  0  0  0  0
   -5.2538  -10.1321  -15.8230 O   0  0  0  0  0  0
   -4.1725   -9.3745  -18.4387 N   0  3  0  0  0  0
   -3.1881   -9.0836  -19.1062 O   0  0  0  0  0  0
   -5.0227   -8.5705  -18.0724 O   0  5  0  0  0  0
   -1.3771  -15.9159  -22.7987 C   0  0  0  0  0  0
    0.0767  -16.2223  -22.4013 C   0  0  0  0  0  0
    0.9551  -14.9729  -22.2468 C   0  0  0  0  0  0
   -4.3222  -14.4504  -16.7313 H   0  0  0  0  0  0
   -5.6541  -13.5625  -15.0392 H   0  0  0  0  0  0
   -5.4614   -9.2993  -16.2429 H   0  0  0  0  0  0
   -1.4131  -15.3501  -23.7311 H   0  0  0  0  0  0
   -1.9006  -16.8533  -22.9901 H   0  0  0  0  0  0
    0.5173  -16.8644  -23.1645 H   0  0  0  0  0  0
    0.0907  -16.7982  -21.4749 H   0  0  0  0  0  0
    1.9895  -15.2483  -22.0402 H   0  0  0  0  0  0
    0.6138  -14.3454  -21.4234 H   0  0  0  0  0  0
    0.9460  -14.3695  -23.1557 H   0  0  0  0  0  0
  1 14  1  0  0  0
  1  2  2  0  0  0
  1  4  1  0  0  0
  2  3  1  0  0  0
  2 15  1  0  0  0
  3  6  2  0  0  0
  3 16  1  0  0  0
  4  5  2  0  0  0
  4 22  1  0  0  0
  5  6  1  0  0  0
  5  9  1  0  0  0
  6  7  1  0  0  0
  7  8  1  0  0  0
  8 11  1  0  0  0
  8  9  2  0  0  0
  9 10  1  0  0  0
 11 12  1  0  0  0
 11 13  2  0  0  0
 12 19  1  0  0  0
 14 23  1  0  0  0
 15 24  1  0  0  0
 16 17  2  0  0  0
 16 18  1  0  0  0
 19 20  1  0  0  0
 19 25  1  0  0  0
 19 26  1  0  0  0
 20 21  1  0  0  0
 20 27  1  0  0  0
 20 28  1  0  0  0
 21 29  1  0  0  0
 21 30  1  0  0  0
 21 31  1  0  0  0
M  CHG  2  16   1  18  -1
M  END
> <s_m_entry_id>
90

> <s_m_entry_name>
glide-dock_SP_comt_chembl_pv.89

> <s_m_Source_Path>
/home/csk/Desktop/cluster/DUD-E-result/comt/glide-dock_SP_comt_chembl

> <s_m_Source_File>
glide-dock_SP_comt_chembl_pv.maegz

> <i_m_Source_File_Index>
89

> <chembl_id>
CHEMBL1089505

> <chembl_pref_name>
None

> <i_lp_mmshare_version>
53161

> <i_f3d_flags>
0

> <r_lp_tautomer_probability>
1

> <s_lp_Force_Field>
OPLS_2005

> <r_lp_Energy>
11.973258

> <b_lp_Chiralities_Consistent>
1

> <s_lp_Variant>
CHEMBL2023_lig123-1

> <s_i_glide_gridfile>
glide-grid_3bwm

> <i_i_glide_lignum>
148

> <i_i_glide_rotatable_bonds>
7

> <r_i_docking_score>
-8.17740812769486

> <r_i_glide_ligand_efficiency>
-0.389400387033089

> <r_i_glide_ligand_efficiency_sa>
-1.07432614098748

> <r_i_glide_ligand_efficiency_ln>
-2.02184763556356

> <r_i_glide_gscore>
-8.17740812769486

> <r_i_glide_lipo>
-0.843576573168851

> <r_i_glide_hbond>
0

> <r_i_glide_metal>
-2.3

> <r_i_glide_rewards>
-1.14723437657862

> <r_i_glide_evdw>
-26.5866088867188

> <r_i_glide_ecoul>
-20.3695163726807

> <r_i_glide_erotb>
0.513205484014

> <r_i_glide_esite>
-0.0150447617233546

> <r_i_glide_emodel>
-78.227210970293

> <r_i_glide_energy>
-46.9561252593994

> <r_i_glide_einternal>
1.84439361095428

> <i_i_glide_confnum>
2

> <i_i_glide_posenum>
349

> <r_i_glide_eff_state_penalty>
0

> <s_user_duplicate_titles>
CHEMBL2023_lig123,CHEMBL2023_lig123,CHEMBL2023_lig123,CHEMBL2023_lig123,CHEMBL2023_lig123

> <s_m_subgroup_title>
glide-dock_SP_comt_chembl_pv

> <s_m_subgroupid>
glide-dock_SP_comt_chembl_pv

> <b_m_subgroup_collapsed>
1

$$$$
CHEMBL2023_lig122
                    3D
 Schrodinger Suite 2021-1.
 34 35  0  0  1  0            999 V2000
   -4.7925  -12.3830  -16.2695 C   0  0  0  0  0  0
   -4.7847  -11.0488  -16.6930 C   0  0  0  0  0  0
   -4.2921  -10.7229  -17.9794 C   0  0  0  0  0  0
   -4.3088  -13.3968  -17.1067 C   0  0  0  0  0  0
   -3.8180  -13.1262  -18.4027 C   0  0  0  0  0  0
   -3.8410  -11.7617  -18.8317 C   0  0  0  0  0  0
   -3.2540  -11.6449  -20.4931 S   0  0  0  0  0  0
   -2.9139  -13.3509  -20.5597 C   0  0  0  0  0  0
   -3.2540  -14.0106  -19.3987 C   0  0  0  0  0  0
   -3.0619  -15.6600  -19.0230 Cl  0  0  0  0  0  0
   -2.2985  -13.8471  -21.7960 C   0  0  0  0  0  0
   -2.1690  -13.1571  -22.8085 O   0  0  0  0  0  0
   -1.8766  -15.1151  -21.6879 O   0  0  0  0  0  0
   -5.2540  -12.6860  -15.0230 O   0  0  0  0  0  0
   -5.2540  -10.1060  -15.8230 O   0  0  0  0  0  0
   -4.1970   -9.3194  -18.4078 N   0  3  0  0  0  0
   -5.0938   -8.5500  -18.0807 O   0  0  0  0  0  0
   -3.1925   -8.9847  -19.0230 O   0  5  0  0  0  0
   -1.2140  -15.7471  -22.7688 C   0  0  0  0  0  0
   -0.6516  -17.1044  -22.3171 C   0  0  0  0  0  0
    0.6162  -17.0189  -21.4449 C   0  0  0  0  0  0
    0.3778  -16.5250  -20.0110 C   0  0  0  0  0  0
   -4.3206  -14.4196  -16.7611 H   0  0  0  0  0  0
   -5.6540  -13.5624  -15.0502 H   0  0  0  0  0  0
   -5.4708   -9.2760  -16.2436 H   0  0  0  0  0  0
   -0.4125  -15.1153  -23.1544 H   0  0  0  0  0  0
   -1.9304  -15.8945  -23.5779 H   0  0  0  0  0  0
   -0.3978  -17.6695  -23.2144 H   0  0  0  0  0  0
   -1.4257  -17.6838  -21.8116 H   0  0  0  0  0  0
    1.3598  -16.3875  -21.9325 H   0  0  0  0  0  0
    1.0601  -18.0135  -21.3887 H   0  0  0  0  0  0
    1.2942  -16.5875  -19.4236 H   0  0  0  0  0  0
   -0.3785  -17.1263  -19.5057 H   0  0  0  0  0  0
    0.0529  -15.4860  -19.9928 H   0  0  0  0  0  0
  1 14  1  0  0  0
  1  2  2  0  0  0
  1  4  1  0  0  0
  2  3  1  0  0  0
  2 15  1  0  0  0
  3  6  2  0  0  0
  3 16  1  0  0  0
  4  5  2  0  0  0
  4 23  1  0  0  0
  5  6  1  0  0  0
  5  9  1  0  0  0
  6  7  1  0  0  0
  7  8  1  0  0  0
  8 11  1  0  0  0
  8  9  2  0  0  0
  9 10  1  0  0  0
 11 12  2  0  0  0
 11 13  1  0  0  0
 13 19  1  0  0  0
 14 24  1  0  0  0
 15 25  1  0  0  0
 16 17  2  0  0  0
 16 18  1  0  0  0
 19 20  1  0  0  0
 19 26  1  0  0  0
 19 27  1  0  0  0
 20 21  1  0  0  0
 20 28  1  0  0  0
 20 29  1  0  0  0
 21 22  1  0  0  0
 21 30  1  0  0  0
 21 31  1  0  0  0
 22 32  1  0  0  0
 22 33  1  0  0  0
 22 34  1  0  0  0
M  CHG  2  16   1  18  -1
M  END
> <s_m_entry_id>
97

> <s_m_entry_name>
glide-dock_SP_comt_chembl_pv.96

> <s_m_Source_Path>
/home/csk/Desktop/cluster/DUD-E-result/comt/glide-dock_SP_comt_chembl

> <s_m_Source_File>
glide-dock_SP_comt_chembl_pv.maegz

> <i_m_Source_File_Index>
96

> <chembl_id>
CHEMBL1089630

> <chembl_pref_name>
None

> <i_lp_mmshare_version>
53161

> <i_f3d_flags>
0

> <r_lp_tautomer_probability>
1

> <s_lp_Force_Field>
OPLS_2005

> <r_lp_Energy>
12.859542

> <b_lp_Chiralities_Consistent>
1

> <s_lp_Variant>
CHEMBL2023_lig122-1

> <s_i_glide_gridfile>
glide-grid_3bwm

> <i_i_glide_lignum>
147

> <i_i_glide_rotatable_bonds>
8

> <r_i_docking_score>
-8.14834730771798

> <r_i_glide_ligand_efficiency>
-0.37037942307809

> <r_i_glide_ligand_efficiency_sa>
-1.03781770966095

> <r_i_glide_ligand_efficiency_ln>
-1.99175330019591

> <r_i_glide_gscore>
-8.14834730771798

> <r_i_glide_lipo>
-1.00427636993648

> <r_i_glide_hbond>
0

> <r_i_glide_metal>
-2.3

> <r_i_glide_rewards>
-1.05166194653335

> <r_i_glide_evdw>
-27.7186660766602

> <r_i_glide_ecoul>
-20.2202186584473

> <r_i_glide_erotb>
0.635855967273965

> <r_i_glide_esite>
-0.00929885592202062

> <r_i_glide_emodel>
-78.913308802867

> <r_i_glide_energy>
-47.9388847351074

> <r_i_glide_einternal>
3.31983637809753

> <i_i_glide_confnum>
8

> <i_i_glide_posenum>
103

> <r_i_glide_eff_state_penalty>
0

> <s_user_duplicate_titles>
CHEMBL2023_lig122,CHEMBL2023_lig122,CHEMBL2023_lig122,CHEMBL2023_lig122,CHEMBL2023_lig122

> <s_m_subgroup_title>
glide-dock_SP_comt_chembl_pv

> <s_m_subgroupid>
glide-dock_SP_comt_chembl_pv

> <b_m_subgroup_collapsed>
1

$$$$
CHEMBL2023_lig59
                    3D
 Schrodinger Suite 2021-1.
 43 46  0  0  1  0            999 V2000
   -2.4556  -13.3772  -20.8804 O   0  0  0  0  0  0
   -2.9403  -12.0412  -20.4993 S   0  0  0  0  0  0
   -2.0249  -10.8906  -20.5490 O   0  0  0  0  0  0
   -4.2214  -13.6472  -16.9926 C   0  0  0  0  0  0
   -3.6825  -13.4527  -18.2714 C   0  0  0  0  0  0
   -3.6315  -12.1617  -18.8361 C   0  0  0  0  0  0
   -4.7144  -12.5545  -16.2622 C   0  0  0  0  0  0
   -4.6851  -11.2614  -16.8057 C   0  0  0  0  0  0
   -4.1244  -11.0486  -18.0980 C   0  0  0  0  0  0
   -4.1038   -9.7198  -18.5837 C   0  0  0  0  0  0
   -4.6967   -8.7062  -17.8129 C   0  0  0  0  0  0
   -5.2713   -9.0428  -16.5806 C   0  0  0  0  0  0
   -5.2158  -10.2755  -16.0461 N   0  0  0  0  0  0
   -5.2571  -12.7513  -15.0211 O   0  0  0  0  0  0
   -4.3258  -11.6744  -21.4822 N   0  0  1  0  0  0
   -4.4931  -10.3021  -21.9703 C   0  0  0  0  0  0
   -4.8513  -10.3972  -23.4596 C   0  0  2  0  0  0
   -4.5453  -11.8472  -23.8309 C   0  0  0  0  0  0
   -4.7832  -12.6018  -22.5228 C   0  0  0  0  0  0
   -4.1401   -9.3549  -24.3159 C   0  0  0  0  0  0
   -4.8655   -8.5676  -25.2345 C   0  0  0  0  0  0
   -4.2093   -7.5766  -25.9922 C   0  0  0  0  0  0
   -2.8272   -7.3622  -25.8323 C   0  0  0  0  0  0
   -2.0970   -8.1492  -24.9250 C   0  0  0  0  0  0
   -2.7466   -9.1517  -24.1822 C   0  0  0  0  0  0
   -2.2008   -6.4038  -26.5546 F   0  0  0  0  0  0
   -4.2877  -14.6452  -16.5829 H   0  0  0  0  0  0
   -3.3299  -14.3130  -18.8202 H   0  0  0  0  0  0
   -3.6762   -9.4482  -19.5339 H   0  0  0  0  0  0
   -4.7357   -7.6851  -18.1602 H   0  0  0  0  0  0
   -5.7662   -8.2962  -15.9861 H   0  0  0  0  0  0
   -5.7071  -13.6056  -15.0341 H   0  0  0  0  0  0
   -3.6006   -9.7103  -21.8068 H   0  0  0  0  0  0
   -5.2714   -9.8130  -21.4032 H   0  0  0  0  0  0
   -5.9290  -10.2493  -23.5514 H   0  0  0  0  0  0
   -5.1599  -12.2101  -24.6553 H   0  0  0  0  0  0
   -3.4986  -11.9527  -24.1181 H   0  0  0  0  0  0
   -5.8491  -12.7844  -22.3811 H   0  0  0  0  0  0
   -4.2785  -13.5661  -22.4923 H   0  0  0  0  0  0
   -5.9304   -8.7072  -25.3544 H   0  0  0  0  0  0
   -4.7674   -6.9743  -26.6917 H   0  0  0  0  0  0
   -1.0380   -7.9853  -24.7973 H   0  0  0  0  0  0
   -2.1707   -9.7518  -23.4933 H   0  0  0  0  0  0
  1  2  2  0  0  0
  2  3  2  0  0  0
  2  6  1  0  0  0
  2 15  1  0  0  0
  4  5  2  0  0  0
  4  7  1  0  0  0
  4 27  1  0  0  0
  5  6  1  0  0  0
  5 28  1  0  0  0
  6  9  2  0  0  0
  7  8  2  0  0  0
  7 14  1  0  0  0
  8  9  1  0  0  0
  8 13  1  0  0  0
  9 10  1  0  0  0
 10 11  2  0  0  0
 10 29  1  0  0  0
 11 12  1  0  0  0
 11 30  1  0  0  0
 12 13  2  0  0  0
 12 31  1  0  0  0
 14 32  1  0  0  0
 15 16  1  0  0  0
 15 19  1  0  0  0
 16 17  1  0  0  0
 16 33  1  0  0  0
 16 34  1  0  0  0
 17 18  1  0  0  0
 17 20  1  0  0  0
 17 35  1  0  0  0
 18 19  1  0  0  0
 18 36  1  0  0  0
 18 37  1  0  0  0
 19 38  1  0  0  0
 19 39  1  0  0  0
 20 21  2  0  0  0
 20 25  1  0  0  0
 21 22  1  0  0  0
 21 40  1  0  0  0
 22 23  2  0  0  0
 22 41  1  0  0  0
 23 24  1  0  0  0
 23 26  1  0  0  0
 24 25  2  0  0  0
 24 42  1  0  0  0
 25 43  1  0  0  0
M  END
> <s_m_entry_id>
98

> <s_m_entry_name>
glide-dock_SP_comt_chembl_pv.97

> <s_m_Source_Path>
/home/csk/Desktop/cluster/DUD-E-result/comt/glide-dock_SP_comt_chembl

> <s_m_Source_File>
glide-dock_SP_comt_chembl_pv.maegz

> <i_m_Source_File_Index>
97

> <chembl_id>
CHEMBL4170443

> <chembl_pref_name>
None

> <i_lp_mmshare_version>
53161

> <i_f3d_flags>
0

> <r_lp_tautomer_probability>
1

> <s_lp_Force_Field>
OPLS_2005

> <r_lp_Energy>
22.796689

> <b_lp_Chiralities_Consistent>
1

> <s_lp_Variant>
CHEMBL2023_lig59-1

> <s_i_glide_gridfile>
glide-grid_3bwm

> <i_i_glide_lignum>
79

> <i_i_glide_rotatable_bonds>
4

> <r_i_docking_score>
-8.14458621801454

> <r_i_glide_ligand_efficiency>
-0.313253316077482

> <r_i_glide_ligand_efficiency_sa>
-0.928011716287262

> <r_i_glide_ligand_efficiency_ln>
-1.91272934873358

> <r_i_glide_gscore>
-8.14458621801454

> <r_i_glide_lipo>
-0.825450622364998

> <r_i_glide_hbond>
-0.411813124695975

> <r_i_glide_metal>
-2.3

> <r_i_glide_rewards>
-0.534765510852474

> <r_i_glide_evdw>
-26.6993560791016

> <r_i_glide_ecoul>
-20.9297943115234

> <r_i_glide_erotb>
0.41777071225897

> <r_i_glide_esite>
-0.0158907216764692

> <r_i_glide_emodel>
-77.2306462502984

> <r_i_glide_energy>
-47.629150390625

> <r_i_glide_einternal>
6.74964284896851

> <i_i_glide_confnum>
70

> <i_i_glide_posenum>
309

> <r_i_glide_eff_state_penalty>
0

> <s_user_duplicate_titles>
CHEMBL2023_lig59,CHEMBL2023_lig59,CHEMBL2023_lig59,CHEMBL2023_lig59,CHEMBL2023_lig59

> <s_m_subgroup_title>
glide-dock_SP_comt_chembl_pv

> <s_m_subgroupid>
glide-dock_SP_comt_chembl_pv

> <b_m_subgroup_collapsed>
1

$$$$
CHEMBL2023_lig115
                    3D
 Schrodinger Suite 2021-1.
 42 43  0  0  1  0            999 V2000
   -4.8017  -12.3443  -16.3013 C   0  0  0  0  0  0
   -4.8145  -10.9989  -16.6976 C   0  0  0  0  0  0
   -4.3278  -10.6230  -17.9686 C   0  0  0  0  0  0
   -4.3020  -13.3239  -17.1751 C   0  0  0  0  0  0
   -3.8125  -13.0033  -18.4645 C   0  0  0  0  0  0
   -3.8549  -11.6245  -18.8464 C   0  0  0  0  0  0
   -3.2539  -11.4251  -20.4896 S   0  0  0  0  0  0
   -2.8834  -13.1176  -20.6229 C   0  0  0  0  0  0
   -3.2265  -13.8349  -19.4967 C   0  0  0  0  0  0
   -2.9649  -15.4860  -19.1833 Cl  0  0  0  0  0  0
   -2.2575  -13.5266  -21.8837 C   0  0  0  0  0  0
   -2.3653  -14.8550  -22.1233 O   0  0  0  0  0  0
   -1.7100  -12.7153  -22.6351 O   0  0  0  0  0  0
   -5.2540  -12.6860  -15.0536 O   0  0  0  0  0  0
   -5.2950  -10.0749  -15.8230 O   0  0  0  0  0  0
   -4.2608   -9.2031  -18.3522 N   0  3  0  0  0  0
   -3.2540   -8.8210  -18.9356 O   0  0  0  0  0  0
   -5.1861   -8.4683  -18.0239 O   0  5  0  0  0  0
   -1.8648  -15.2855  -23.3599 C   0  0  0  0  0  0
   -2.5021  -16.4369  -23.8229 O   0  0  0  0  0  0
   -3.7960  -16.2860  -24.2230 C   0  0  0  0  0  0
   -4.3684  -17.6465  -24.6945 C   0  0  1  0  0  0
   -4.4147  -15.2192  -24.2399 O   0  0  0  0  0  0
   -3.9560  -18.7484  -23.8230 N   0  0  0  0  0  0
   -5.9110  -17.6912  -24.8988 C   0  0  0  0  0  0
   -6.3753  -16.8762  -26.1196 C   0  0  0  0  0  0
   -6.7351  -17.3291  -23.6459 C   0  0  0  0  0  0
   -4.2929  -14.3572  -16.8613 H   0  0  0  0  0  0
   -5.6515  -13.5632  -15.0975 H   0  0  0  0  0  0
   -5.5215   -9.2417  -16.2325 H   0  0  0  0  0  0
   -0.8060  -15.5138  -23.2345 H   0  0  0  0  0  0
   -1.9502  -14.5222  -24.1379 H   0  0  0  0  0  0
   -3.9240  -17.8498  -25.6693 H   0  0  0  0  0  0
   -2.9548  -18.8767  -23.8560 H   0  0  0  0  0  0
   -4.1600  -18.5179  -22.8508 H   0  0  0  0  0  0
   -6.1566  -18.7281  -25.1350 H   0  0  0  0  0  0
   -6.2442  -15.8043  -25.9736 H   0  0  0  0  0  0
   -7.4322  -17.0490  -26.3234 H   0  0  0  0  0  0
   -5.8216  -17.1599  -27.0150 H   0  0  0  0  0  0
   -6.6115  -16.2860  -23.3568 H   0  0  0  0  0  0
   -7.7982  -17.4918  -23.8230 H   0  0  0  0  0  0
   -6.4540  -17.9462  -22.7926 H   0  0  0  0  0  0
  1 14  1  0  0  0
  1  2  2  0  0  0
  1  4  1  0  0  0
  2 15  1  0  0  0
  2  3  1  0  0  0
  3  6  2  0  0  0
  3 16  1  0  0  0
  4  5  2  0  0  0
  4 28  1  0  0  0
  5  9  1  0  0  0
  5  6  1  0  0  0
  6  7  1  0  0  0
  7  8  1  0  0  0
  8 11  1  0  0  0
  8  9  2  0  0  0
  9 10  1  0  0  0
 11 13  2  0  0  0
 11 12  1  0  0  0
 12 19  1  0  0  0
 14 29  1  0  0  0
 15 30  1  0  0  0
 16 17  2  0  0  0
 16 18  1  0  0  0
 19 20  1  0  0  0
 19 31  1  0  0  0
 19 32  1  0  0  0
 20 21  1  0  0  0
 21 22  1  0  0  0
 21 23  2  0  0  0
 22 24  1  0  0  0
 22 25  1  0  0  0
 22 33  1  0  0  0
 24 34  1  0  0  0
 24 35  1  0  0  0
 25 26  1  0  0  0
 25 27  1  0  0  0
 25 36  1  0  0  0
 26 37  1  0  0  0
 26 38  1  0  0  0
 26 39  1  0  0  0
 27 40  1  0  0  0
 27 41  1  0  0  0
 27 42  1  0  0  0
M  CHG  2  16   1  18  -1
M  END
> <s_m_entry_id>
115

> <s_m_entry_name>
glide-dock_SP_comt_chembl_pv.114

> <s_m_Source_Path>
/home/csk/Desktop/cluster/DUD-E-result/comt/glide-dock_SP_comt_chembl

> <s_m_Source_File>
glide-dock_SP_comt_chembl_pv.maegz

> <i_m_Source_File_Index>
114

> <chembl_id>
CHEMBL1091982

> <chembl_pref_name>
None

> <i_lp_mmshare_version>
53161

> <i_f3d_flags>
0

> <r_lp_tautomer_probability>
1

> <s_lp_Force_Field>
OPLS_2005

> <r_lp_Energy>
14.141503

> <b_lp_Chiralities_Consistent>
1

> <s_lp_Variant>
CHEMBL2023_lig115-2

> <s_i_glide_gridfile>
glide-grid_3bwm

> <i_i_glide_lignum>
138

> <i_i_glide_rotatable_bonds>
10

> <r_i_docking_score>
-8.07892058111137

> <r_i_glide_ligand_efficiency>
-0.299219280781903

> <r_i_glide_ligand_efficiency_sa>
-0.89765784135953

> <r_i_glide_ligand_efficiency_ln>
-1.88063951986747

> <r_i_glide_gscore>
-8.07892058111137

> <r_i_glide_lipo>
-0.787003794856816

> <r_i_glide_hbond>
-0.291720544346819

> <r_i_glide_metal>
-2.3

> <r_i_glide_rewards>
-0.553525164825162

> <r_i_glide_evdw>
-27.5860328674316

> <r_i_glide_ecoul>
-22.9221248626709

> <r_i_glide_erotb>
0.676546673581813

> <r_i_glide_esite>
-0.00559737789217243

> <r_i_glide_emodel>
-82.4726844984222

> <r_i_glide_energy>
-50.5081577301025

> <r_i_glide_einternal>
4.50062990188599

> <i_i_glide_confnum>
84

> <i_i_glide_posenum>
136

> <r_i_glide_eff_state_penalty>
0

> <s_user_duplicate_titles>
CHEMBL2023_lig115,CHEMBL2023_lig115,CHEMBL2023_lig115,CHEMBL2023_lig115,CHEMBL2023_lig115

> <s_m_subgroup_title>
glide-dock_SP_comt_chembl_pv

> <s_m_subgroupid>
glide-dock_SP_comt_chembl_pv

> <b_m_subgroup_collapsed>
1

$$$$
CHEMBL2023_lig31
                    3D
 Schrodinger Suite 2021-1.
 19 20  0  0  1  0            999 V2000
   -3.9941  -10.4501  -17.5240 C   0  0  0  0  0  0
   -3.8727   -9.3422  -18.2757 C   0  0  0  0  0  0
   -4.8087   -8.3145  -18.2230 N   0  0  0  0  0  0
   -5.8891   -8.4266  -17.5144 C   0  0  0  0  0  0
   -6.0315   -9.5570  -16.6954 N   0  0  0  0  0  0
   -5.1304  -10.5640  -16.6230 C   0  0  0  0  0  0
   -5.2540  -11.4860  -15.8230 O   0  0  0  0  0  0
   -3.1020  -11.4466  -17.5779 O   0  0  0  0  0  0
   -6.9089   -7.3807  -17.5866 C   0  0  0  0  0  0
   -6.8851   -6.2311  -18.3378 C   0  0  0  0  0  0
   -7.9985   -5.3774  -18.1029 C   0  0  0  0  0  0
   -8.8540   -5.8860  -17.1667 C   0  0  0  0  0  0
   -8.3643   -7.4661  -16.6230 S   0  0  0  0  0  0
   -3.0513   -9.2026  -18.9627 H   0  0  0  0  0  0
   -6.8741   -9.6218  -16.1401 H   0  0  0  0  0  0
   -3.4490  -12.1582  -17.0581 H   0  0  0  0  0  0
   -6.0958   -5.9588  -19.0230 H   0  0  0  0  0  0
   -8.1227   -4.4271  -18.6021 H   0  0  0  0  0  0
   -9.7657   -5.4483  -16.7886 H   0  0  0  0  0  0
  1  2  2  0  0  0
  1  6  1  0  0  0
  1  8  1  0  0  0
  2  3  1  0  0  0
  2 14  1  0  0  0
  3  4  2  0  0  0
  4  5  1  0  0  0
  4  9  1  0  0  0
  5  6  1  0  0  0
  5 15  1  0  0  0
  6  7  2  0  0  0
  8 16  1  0  0  0
  9 10  2  0  0  0
  9 13  1  0  0  0
 10 11  1  0  0  0
 10 17  1  0  0  0
 11 12  2  0  0  0
 11 18  1  0  0  0
 12 13  1  0  0  0
 12 19  1  0  0  0
M  END
> <s_m_entry_id>
117

> <s_m_entry_name>
glide-dock_SP_comt_chembl_pv.116

> <s_m_Source_Path>
/home/csk/Desktop/cluster/DUD-E-result/comt/glide-dock_SP_comt_chembl

> <s_m_Source_File>
glide-dock_SP_comt_chembl_pv.maegz

> <i_m_Source_File_Index>
116

> <chembl_id>
CHEMBL3425722

> <chembl_pref_name>
None

> <i_lp_mmshare_version>
53161

> <i_f3d_flags>
0

> <r_lp_tautomer_probability>
0.514243068145529

> <s_lp_Force_Field>
OPLS_2005

> <r_lp_Energy>
8.971601

> <b_lp_Chiralities_Consistent>
1

> <s_lp_Variant>
CHEMBL2023_lig31-1

> <s_i_glide_gridfile>
glide-grid_3bwm

> <i_i_glide_lignum>
40

> <i_i_glide_rotatable_bonds>
2

> <r_i_docking_score>
-8.06911496558736

> <r_i_glide_ligand_efficiency>
-0.620701151199027

> <r_i_glide_ligand_efficiency_sa>
-1.45947614627465

> <r_i_glide_ligand_efficiency_ln>
-2.26345851132457

> <r_i_glide_gscore>
-8.06911496558736

> <r_i_glide_lipo>
-1.4201333665226

> <r_i_glide_hbond>
0

> <r_i_glide_metal>
-2.3

> <r_i_glide_rewards>
-2.084922

> <r_i_glide_evdw>
-26.5419063568115

> <r_i_glide_ecoul>
-8.43612194061279

> <r_i_glide_erotb>
0.428777235942767

> <r_i_glide_esite>
-0.100323226075027

> <r_i_glide_emodel>
-57.0344102007828

> <r_i_glide_energy>
-34.9780282974243

> <r_i_glide_einternal>
2.54158926010132

> <i_i_glide_confnum>
1

> <i_i_glide_posenum>
1

> <r_i_glide_eff_state_penalty>
0

> <s_user_duplicate_titles>
CHEMBL2023_lig31,CHEMBL2023_lig31,CHEMBL2023_lig31,CHEMBL2023_lig31,CHEMBL2023_lig31,CHEMBL2023_lig31,CHEMBL2023_lig31,CHEMBL2023_lig31,CHEMBL2023_lig31,CHEMBL2023_lig31,CHEMBL2023_lig31,CHEMBL2023_lig31,CHEMBL2023_lig31

> <s_m_subgroup_title>
glide-dock_SP_comt_chembl_pv

> <s_m_subgroupid>
glide-dock_SP_comt_chembl_pv

> <b_m_subgroup_collapsed>
1

$$$$
CHEMBL2023_lig1
                    3D
 Schrodinger Suite 2021-1.
 21 22  0  0  1  0            999 V2000
   -8.3456   -7.0995  -16.6174 C   0  0  0  0  0  0
   -8.8534   -5.8873  -17.0944 N   0  0  0  0  0  0
   -8.2227   -5.4420  -18.1757 C   0  0  0  0  0  0
   -6.8643   -6.4468  -18.6200 S   0  0  0  0  0  0
   -7.2470   -7.5484  -17.3235 C   0  0  0  0  0  0
   -6.3560   -8.6704  -17.0550 C   0  0  0  0  0  0
   -6.4550   -9.4858  -15.9521 N   0  0  0  0  0  0
   -5.4377  -10.3666  -15.8234 N   0  0  0  0  0  0
   -4.7293  -10.1585  -16.9257 C   0  0  0  0  0  0
   -5.2356   -9.0899  -17.7183 C   0  0  0  0  0  0
   -8.6213   -4.2148  -18.9189 C   0  0  0  0  0  0
   -8.9865   -7.6989  -15.4017 C   0  0  0  0  0  0
   -7.2056   -9.4088  -15.2738 H   0  0  0  0  0  0
   -3.8491  -10.7607  -17.1000 H   0  0  0  0  0  0
   -4.8255   -8.6835  -18.6282 H   0  0  0  0  0  0
   -8.8126   -3.3994  -18.2236 H   0  0  0  0  0  0
   -9.5318   -4.4008  -19.4890 H   0  0  0  0  0  0
   -7.8311   -3.9104  -19.6056 H   0  0  0  0  0  0
   -9.2309   -8.7480  -15.5584 H   0  0  0  0  0  0
   -8.3285   -7.6276  -14.5358 H   0  0  0  0  0  0
   -9.9167   -7.1879  -15.1459 H   0  0  0  0  0  0
  1  2  1  0  0  0
  1  5  2  0  0  0
  1 12  1  0  0  0
  2  3  2  0  0  0
  3  4  1  0  0  0
  3 11  1  0  0  0
  4  5  1  0  0  0
  5  6  1  0  0  0
  6  7  1  0  0  0
  6 10  2  0  0  0
  7  8  1  0  0  0
  7 13  1  0  0  0
  8  9  2  0  0  0
  9 14  1  0  0  0
  9 10  1  0  0  0
 10 15  1  0  0  0
 11 16  1  0  0  0
 11 17  1  0  0  0
 11 18  1  0  0  0
 12 19  1  0  0  0
 12 20  1  0  0  0
 12 21  1  0  0  0
M  END
> <s_m_entry_id>
121

> <s_m_entry_name>
glide-dock_SP_comt_chembl_pv.120

> <s_m_Source_Path>
/home/csk/Desktop/cluster/DUD-E-result/comt/glide-dock_SP_comt_chembl

> <s_m_Source_File>
glide-dock_SP_comt_chembl_pv.maegz

> <i_m_Source_File_Index>
120

> <chembl_id>
CHEMBL3289432

> <chembl_pref_name>
None

> <i_lp_mmshare_version>
53161

> <i_f3d_flags>
0

> <r_lp_tautomer_probability>
0.5

> <s_lp_Force_Field>
OPLS_2005

> <r_lp_Energy>
1.66072

> <b_lp_Chiralities_Consistent>
1

> <s_lp_Variant>
CHEMBL2023_lig1-2

> <s_i_glide_gridfile>
glide-grid_3bwm

> <i_i_glide_lignum>
2

> <i_i_glide_rotatable_bonds>
1

> <r_i_docking_score>
-8.03935060044661

> <r_i_glide_ligand_efficiency>
-0.669945883370551

> <r_i_glide_ligand_efficiency_sa>
-1.53379318759804

> <r_i_glide_ligand_efficiency_ln>
-2.30690558122573

> <r_i_glide_gscore>
-8.03935060044661

> <r_i_glide_lipo>
-1.22294446990837

> <r_i_glide_hbond>
-0.0433306913044658

> <r_i_glide_metal>
-2.3

> <r_i_glide_rewards>
-2.18697845454545

> <r_i_glide_evdw>
-21.0247364044189

> <r_i_glide_ecoul>
-10.8289794921875

> <r_i_glide_erotb>
0.489486759360752

> <r_i_glide_esite>
-0.1

> <r_i_glide_emodel>
-52.0854293534444

> <r_i_glide_energy>
-31.8537158966064

> <r_i_glide_einternal>
0.0216649249196053

> <i_i_glide_confnum>
1

> <i_i_glide_posenum>
15

> <r_i_glide_eff_state_penalty>
0

> <s_user_duplicate_titles>
CHEMBL2023_lig1,CHEMBL2023_lig1,CHEMBL2023_lig1,CHEMBL2023_lig1

> <s_m_subgroup_title>
glide-dock_SP_comt_chembl_pv

> <s_m_subgroupid>
glide-dock_SP_comt_chembl_pv

> <b_m_subgroup_collapsed>
1

$$$$
CHEMBL2023_lig62
                    3D
 Schrodinger Suite 2021-1.
 46 49  0  0  1  0            999 V2000
   -2.1773  -12.7532  -20.8179 O   0  0  0  0  0  0
   -2.8882  -11.5335  -20.4063 S   0  0  0  0  0  0
   -2.1344  -10.2832  -20.2224 O   0  0  0  0  0  0
   -4.1695  -13.5094  -17.0613 C   0  0  0  0  0  0
   -3.6538  -13.1983  -18.3339 C   0  0  0  0  0  0
   -3.7303  -11.8819  -18.8379 C   0  0  0  0  0  0
   -4.7505  -12.5037  -16.2671 C   0  0  0  0  0  0
   -4.8539  -11.1920  -16.7594 C   0  0  0  0  0  0
   -4.3585  -10.8758  -18.0576 C   0  0  0  0  0  0
   -4.5294   -9.5517  -18.5159 C   0  0  0  0  0  0
   -5.2284   -8.6376  -17.7110 C   0  0  0  0  0  0
   -5.6960   -9.0643  -16.4584 C   0  0  0  0  0  0
   -5.4514  -10.2859  -15.9523 N   0  0  0  0  0  0
   -5.2543  -12.7997  -15.0236 O   0  0  0  0  0  0
   -4.1436  -11.3030  -21.5980 N   0  0  3  0  0  0
   -4.4740  -10.0772  -22.3627 C   0  0  2  0  0  0
   -5.2881  -10.6023  -23.5588 C   0  0  0  0  0  0
   -5.9604  -11.8704  -23.0565 C   0  0  0  0  0  0
   -4.9771  -12.4323  -22.0226 C   0  0  0  0  0  0
   -3.2840   -9.1766  -22.7995 C   0  0  0  0  0  0
   -2.3268   -9.7556  -23.8369 C   0  0  0  0  0  0
   -1.2429  -10.5748  -23.4558 C   0  0  0  0  0  0
   -0.3621  -11.0911  -24.4266 C   0  0  0  0  0  0
   -0.5522  -10.7838  -25.7868 C   0  0  0  0  0  0
   -1.6219   -9.9559  -26.1743 C   0  0  0  0  0  0
   -2.5024   -9.4407  -25.2026 C   0  0  0  0  0  0
   -4.1159  -14.5240  -16.6925 H   0  0  0  0  0  0
   -3.1794  -13.9775  -18.9129 H   0  0  0  0  0  0
   -4.1847   -9.2305  -19.4842 H   0  0  0  0  0  0
   -5.4208   -7.6289  -18.0487 H   0  0  0  0  0  0
   -6.2614   -8.3967  -15.8260 H   0  0  0  0  0  0
   -5.6749  -13.6670  -15.0619 H   0  0  0  0  0  0
   -5.1419   -9.4861  -21.7418 H   0  0  0  0  0  0
   -5.9989   -9.8682  -23.9413 H   0  0  0  0  0  0
   -4.6388  -10.8891  -24.3850 H   0  0  0  0  0  0
   -6.9231  -11.6189  -22.6171 H   0  0  0  0  0  0
   -6.1559  -12.5788  -23.8621 H   0  0  0  0  0  0
   -5.4876  -12.8708  -21.1646 H   0  0  0  0  0  0
   -4.3383  -13.1944  -22.4713 H   0  0  0  0  0  0
   -2.7282   -8.7930  -21.9506 H   0  0  0  0  0  0
   -3.7106   -8.2773  -23.2438 H   0  0  0  0  0  0
   -1.0679  -10.8146  -22.4208 H   0  0  0  0  0  0
    0.4623  -11.7200  -24.1254 H   0  0  0  0  0  0
    0.1244  -11.1794  -26.5308 H   0  0  0  0  0  0
   -1.7672   -9.7144  -27.2165 H   0  0  0  0  0  0
   -3.3187   -8.8056  -25.5127 H   0  0  0  0  0  0
  1  2  2  0  0  0
  2  3  2  0  0  0
  2  6  1  0  0  0
  2 15  1  0  0  0
  4  5  2  0  0  0
  4  7  1  0  0  0
  4 27  1  0  0  0
  5  6  1  0  0  0
  5 28  1  0  0  0
  6  9  2  0  0  0
  7  8  2  0  0  0
  7 14  1  0  0  0
  8  9  1  0  0  0
  8 13  1  0  0  0
  9 10  1  0  0  0
 10 11  2  0  0  0
 10 29  1  0  0  0
 11 12  1  0  0  0
 11 30  1  0  0  0
 12 13  2  0  0  0
 12 31  1  0  0  0
 14 32  1  0  0  0
 15 16  1  0  0  0
 15 19  1  0  0  0
 16 17  1  0  0  0
 16 20  1  0  0  0
 16 33  1  0  0  0
 17 18  1  0  0  0
 17 34  1  0  0  0
 17 35  1  0  0  0
 18 19  1  0  0  0
 18 36  1  0  0  0
 18 37  1  0  0  0
 19 38  1  0  0  0
 19 39  1  0  0  0
 20 21  1  0  0  0
 20 40  1  0  0  0
 20 41  1  0  0  0
 21 22  2  0  0  0
 21 26  1  0  0  0
 22 23  1  0  0  0
 22 42  1  0  0  0
 23 24  2  0  0  0
 23 43  1  0  0  0
 24 25  1  0  0  0
 24 44  1  0  0  0
 25 26  2  0  0  0
 25 45  1  0  0  0
 26 46  1  0  0  0
M  END
> <s_m_entry_id>
122

> <s_m_entry_name>
glide-dock_SP_comt_chembl_pv.121

> <s_m_Source_Path>
/home/csk/Desktop/cluster/DUD-E-result/comt/glide-dock_SP_comt_chembl

> <s_m_Source_File>
glide-dock_SP_comt_chembl_pv.maegz

> <i_m_Source_File_Index>
121

> <chembl_id>
CHEMBL4174978

> <chembl_pref_name>
None

> <i_lp_mmshare_version>
53161

> <i_f3d_flags>
0

> <r_lp_tautomer_probability>
1

> <s_lp_Force_Field>
OPLS_2005

> <r_lp_Energy>
19.762566

> <b_lp_Chiralities_Consistent>
1

> <s_lp_Variant>
CHEMBL2023_lig62-1

> <s_i_glide_gridfile>
glide-grid_3bwm

> <i_i_glide_lignum>
83

> <i_i_glide_rotatable_bonds>
5

> <r_i_docking_score>
-8.03420103728531

> <r_i_glide_ligand_efficiency>
-0.309007732203281

> <r_i_glide_ligand_efficiency_sa>
-0.915434190765507

> <r_i_glide_ligand_efficiency_ln>
-1.88680575124264

> <r_i_glide_gscore>
-8.03420103728531

> <r_i_glide_lipo>
-0.651682223281803

> <r_i_glide_hbond>
-0.434911318659827

> <r_i_glide_metal>
-2.3

> <r_i_glide_rewards>
-0.568938032373735

> <r_i_glide_evdw>
-24.528980255127

> <r_i_glide_ecoul>
-22.412992477417

> <r_i_glide_erotb>
0.567784364978031

> <r_i_glide_esite>
-0.0580559435790763

> <r_i_glide_emodel>
-70.3918832439222

> <r_i_glide_energy>
-46.9419727325439

> <r_i_glide_einternal>
15.6562557220459

> <i_i_glide_confnum>
51

> <i_i_glide_posenum>
146

> <r_i_glide_eff_state_penalty>
0

> <s_user_duplicate_titles>
CHEMBL2023_lig62,CHEMBL2023_lig62,CHEMBL2023_lig62,CHEMBL2023_lig62,CHEMBL2023_lig62

> <s_m_subgroup_title>
glide-dock_SP_comt_chembl_pv

> <s_m_subgroupid>
glide-dock_SP_comt_chembl_pv

> <b_m_subgroup_collapsed>
1

$$$$
CHEMBL2023_lig58
                    3D
 Schrodinger Suite 2021-1.
 33 35  0  0  1  0            999 V2000
   -4.6200  -11.1636  -21.4091 O   0  0  0  0  0  0
   -3.9002  -12.2903  -20.7992 S   0  0  0  0  0  0
   -4.2038  -13.6629  -21.2357 O   0  0  0  0  0  0
   -4.3113  -13.6752  -17.0231 C   0  0  0  0  0  0
   -3.9498  -13.5172  -18.3672 C   0  0  0  0  0  0
   -4.0667  -12.2645  -18.9979 C   0  0  0  0  0  0
   -4.7826  -12.5742  -16.2920 C   0  0  0  0  0  0
   -4.8181  -11.2947  -16.8673 C   0  0  0  0  0  0
   -4.4309  -11.1235  -18.2284 C   0  0  0  0  0  0
   -4.4556   -9.8092  -18.7434 C   0  0  0  0  0  0
   -4.9135   -8.7618  -17.9246 C   0  0  0  0  0  0
   -5.3396   -9.0592  -16.6230 C   0  0  0  0  0  0
   -5.2538  -10.2860  -16.0765 N   0  0  0  0  0  0
   -5.2540  -12.7548  -15.0227 O   0  0  0  0  0  0
   -2.2108  -12.0379  -21.0541 N   0  0  0  0  0  0
   -1.4644  -12.8902  -21.9892 C   0  0  0  0  0  0
   -0.4890  -11.9535  -22.7043 C   0  0  0  0  0  0
   -0.2885  -10.8127  -21.7158 C   0  0  0  0  0  0
   -1.6542  -10.6860  -21.0377 C   0  0  0  0  0  0
   -4.2948  -14.6599  -16.5772 H   0  0  0  0  0  0
   -3.6541  -14.3885  -18.9336 H   0  0  0  0  0  0
   -4.1419   -9.5757  -19.7471 H   0  0  0  0  0  0
   -4.9759   -7.7478  -18.2930 H   0  0  0  0  0  0
   -5.7450   -8.2860  -15.9948 H   0  0  0  0  0  0
   -5.6709  -13.6226  -14.9822 H   0  0  0  0  0  0
   -2.1286  -13.3805  -22.7019 H   0  0  0  0  0  0
   -0.9378  -13.6618  -21.4276 H   0  0  0  0  0  0
   -0.9475  -11.5713  -23.6175 H   0  0  0  0  0  0
    0.4446  -12.4458  -22.9782 H   0  0  0  0  0  0
    0.4696  -11.0882  -20.9817 H   0  0  0  0  0  0
    0.0328   -9.8888  -22.1982 H   0  0  0  0  0  0
   -1.5914  -10.2963  -20.0213 H   0  0  0  0  0  0
   -2.2970  -10.0254  -21.6214 H   0  0  0  0  0  0
  1  2  2  0  0  0
  2  3  2  0  0  0
  2  6  1  0  0  0
  2 15  1  0  0  0
  4  5  2  0  0  0
  4  7  1  0  0  0
  4 20  1  0  0  0
  5  6  1  0  0  0
  5 21  1  0  0  0
  6  9  2  0  0  0
  7  8  2  0  0  0
  7 14  1  0  0  0
  8  9  1  0  0  0
  8 13  1  0  0  0
  9 10  1  0  0  0
 10 11  2  0  0  0
 10 22  1  0  0  0
 11 12  1  0  0  0
 11 23  1  0  0  0
 12 13  2  0  0  0
 12 24  1  0  0  0
 14 25  1  0  0  0
 15 16  1  0  0  0
 15 19  1  0  0  0
 16 17  1  0  0  0
 16 26  1  0  0  0
 16 27  1  0  0  0
 17 18  1  0  0  0
 17 28  1  0  0  0
 17 29  1  0  0  0
 18 19  1  0  0  0
 18 30  1  0  0  0
 18 31  1  0  0  0
 19 32  1  0  0  0
 19 33  1  0  0  0
M  END
> <s_m_entry_id>
124

> <s_m_entry_name>
glide-dock_SP_comt_chembl_pv.123

> <s_m_Source_Path>
/home/csk/Desktop/cluster/DUD-E-result/comt/glide-dock_SP_comt_chembl

> <s_m_Source_File>
glide-dock_SP_comt_chembl_pv.maegz

> <i_m_Source_File_Index>
123

> <chembl_id>
CHEMBL4160303

> <chembl_pref_name>
None

> <i_lp_mmshare_version>
53161

> <i_f3d_flags>
0

> <r_lp_tautomer_probability>
1

> <s_lp_Force_Field>
OPLS_2005

> <r_lp_Energy>
18.149392

> <b_lp_Chiralities_Consistent>
1

> <s_lp_Variant>
CHEMBL2023_lig58-1

> <s_i_glide_gridfile>
glide-grid_3bwm

> <i_i_glide_lignum>
78

> <i_i_glide_rotatable_bonds>
3

> <r_i_docking_score>
-8.0270356481075

> <r_i_glide_ligand_efficiency>
-0.422475560426711

> <r_i_glide_ligand_efficiency_sa>
-1.12733448088091

> <r_i_glide_ligand_efficiency_ln>
-2.03502594171296

> <r_i_glide_gscore>
-8.0270356481075

> <r_i_glide_lipo>
-0.598148481743627

> <r_i_glide_hbond>
-0.427527675407942

> <r_i_glide_metal>
-2.3

> <r_i_glide_rewards>
-1.28687284106706

> <r_i_glide_evdw>
-22.6818180084229

> <r_i_glide_ecoul>
-18.294506072998

> <r_i_glide_erotb>
0.465340739600176

> <r_i_glide_esite>
-0.00156057811819674

> <r_i_glide_emodel>
-68.2340796398745

> <r_i_glide_energy>
-40.9763240814209

> <r_i_glide_einternal>
6.09335374832153

> <i_i_glide_confnum>
22

> <i_i_glide_posenum>
175

> <r_i_glide_eff_state_penalty>
0

> <s_user_duplicate_titles>
CHEMBL2023_lig58,CHEMBL2023_lig58,CHEMBL2023_lig58,CHEMBL2023_lig58,CHEMBL2023_lig58

> <s_m_subgroup_title>
glide-dock_SP_comt_chembl_pv

> <s_m_subgroupid>
glide-dock_SP_comt_chembl_pv

> <b_m_subgroup_collapsed>
1

$$$$
CHEMBL2023_lig69
                    3D
 Schrodinger Suite 2021-1.
 34 36  0  0  1  0            999 V2000
   -2.4540   -9.4860  -20.7437 O   0  0  0  0  0  0
   -3.4251  -10.5482  -21.0132 S   0  0  0  0  0  0
   -4.6777  -10.2544  -21.7221 O   0  0  0  0  0  0
   -4.0041  -13.2414  -18.0696 C   0  0  0  0  0  0
   -3.6972  -12.6232  -19.2732 C   0  0  0  0  0  0
   -3.8371  -11.2466  -19.4121 C   0  0  0  0  0  0
   -4.5103  -12.5083  -16.9682 C   0  0  0  0  0  0
   -4.6997  -11.1185  -17.0984 C   0  0  0  0  0  0
   -4.3215  -10.4821  -18.3179 C   0  0  0  0  0  0
   -4.4672   -9.0860  -18.3978 C   0  0  0  0  0  0
   -5.1100   -8.4031  -17.3557 C   0  0  0  0  0  0
   -5.5250   -9.1349  -16.2325 C   0  0  0  0  0  0
   -5.2540  -10.4403  -16.0574 N   0  0  0  0  0  0
   -4.8540  -13.0861  -15.7712 O   0  0  0  0  0  0
   -2.5625  -11.8151  -21.9458 C   0  0  0  0  0  0
   -3.2956  -12.7022  -22.7599 C   0  0  0  0  0  0
   -2.6235  -13.7276  -23.4531 C   0  0  0  0  0  0
   -1.2241  -13.8643  -23.3338 C   0  0  0  0  0  0
   -0.4969  -12.9714  -22.5186 C   0  0  0  0  0  0
   -1.1648  -11.9452  -21.8230 C   0  0  0  0  0  0
   -0.5040  -14.9724  -24.0741 C   0  0  0  0  0  0
   -3.6540  -15.0860  -18.0949 Br  0  0  0  0  0  0
   -3.3378  -13.2474  -20.0746 H   0  0  0  0  0  0
   -4.1252   -8.5410  -19.2578 H   0  0  0  0  0  0
   -5.2985   -7.3398  -17.4150 H   0  0  0  0  0  0
   -6.0714   -8.6860  -15.4230 H   0  0  0  0  0  0
   -5.4106  -13.8705  -15.8550 H   0  0  0  0  0  0
   -4.3680  -12.6036  -22.8466 H   0  0  0  0  0  0
   -3.1853  -14.4107  -24.0737 H   0  0  0  0  0  0
    0.5744  -13.0734  -22.4211 H   0  0  0  0  0  0
   -0.6047  -11.2691  -21.1937 H   0  0  0  0  0  0
    0.5101  -14.6698  -24.3372 H   0  0  0  0  0  0
   -1.0275  -15.2302  -24.9953 H   0  0  0  0  0  0
   -0.4456  -15.8649  -23.4507 H   0  0  0  0  0  0
  1  2  2  0  0  0
  2  3  2  0  0  0
  2  6  1  0  0  0
  2 15  1  0  0  0
  4  5  2  0  0  0
  4  7  1  0  0  0
  4 22  1  0  0  0
  5  6  1  0  0  0
  5 23  1  0  0  0
  6  9  2  0  0  0
  7  8  2  0  0  0
  7 14  1  0  0  0
  8  9  1  0  0  0
  8 13  1  0  0  0
  9 10  1  0  0  0
 10 11  2  0  0  0
 10 24  1  0  0  0
 11 12  1  0  0  0
 11 25  1  0  0  0
 12 13  2  0  0  0
 12 26  1  0  0  0
 14 27  1  0  0  0
 15 16  2  0  0  0
 15 20  1  0  0  0
 16 17  1  0  0  0
 16 28  1  0  0  0
 17 18  2  0  0  0
 17 29  1  0  0  0
 18 19  1  0  0  0
 18 21  1  0  0  0
 19 20  2  0  0  0
 19 30  1  0  0  0
 20 31  1  0  0  0
 21 32  1  0  0  0
 21 33  1  0  0  0
 21 34  1  0  0  0
M  END
> <s_m_entry_id>
126

> <s_m_entry_name>
glide-dock_SP_comt_chembl_pv.125

> <s_m_Source_Path>
/home/csk/Desktop/cluster/DUD-E-result/comt/glide-dock_SP_comt_chembl

> <s_m_Source_File>
glide-dock_SP_comt_chembl_pv.maegz

> <i_m_Source_File_Index>
125

> <chembl_id>
CHEMBL4173001

> <chembl_pref_name>
None

> <i_lp_mmshare_version>
53161

> <i_f3d_flags>
0

> <r_lp_tautomer_probability>
1

> <s_lp_Force_Field>
OPLS_2005

> <r_lp_Energy>
13.876335

> <b_lp_Chiralities_Consistent>
1

> <s_lp_Variant>
CHEMBL2023_lig69-1

> <s_i_glide_gridfile>
glide-grid_3bwm

> <i_i_glide_lignum>
91

> <i_i_glide_rotatable_bonds>
3

> <r_i_docking_score>
-8.02358025936978

> <r_i_glide_ligand_efficiency>
-0.364708193607717

> <r_i_glide_ligand_efficiency_sa>
-1.02192670164816

> <r_i_glide_ligand_efficiency_ln>
-1.96125568259094

> <r_i_glide_gscore>
-8.02358025936978

> <r_i_glide_lipo>
-0.79741460932896

> <r_i_glide_hbond>
-0.303987548170711

> <r_i_glide_metal>
-2.16195278210889

> <r_i_glide_rewards>
-0.909932728172148

> <r_i_glide_evdw>
-16.7429351806641

> <r_i_glide_ecoul>
-21.5172691345215

> <r_i_glide_erotb>
0.270881839370827

> <r_i_glide_esite>
-0.0564373017484688

> <r_i_glide_emodel>
-59.0645967298608

> <r_i_glide_energy>
-38.2602043151855

> <r_i_glide_einternal>
3.97173166275024

> <i_i_glide_confnum>
3

> <i_i_glide_posenum>
19

> <r_i_glide_eff_state_penalty>
0

> <s_user_duplicate_titles>
CHEMBL2023_lig69,CHEMBL2023_lig69

> <s_m_subgroup_title>
glide-dock_SP_comt_chembl_pv

> <s_m_subgroupid>
glide-dock_SP_comt_chembl_pv

> <b_m_subgroup_collapsed>
1

$$$$
CHEMBL2023_lig24
                    3D
 Schrodinger Suite 2021-1.
 30 31  0  0  1  0            999 V2000
   -4.8299  -12.3350  -16.2773 C   0  0  0  0  0  0
   -4.4086  -13.3195  -17.1998 C   0  0  0  0  0  0
   -4.2023  -10.6374  -17.8993 C   0  0  0  0  0  0
   -4.7769  -10.9836  -16.6619 C   0  0  0  0  0  0
   -3.6960  -11.6449  -18.7528 C   0  0  0  0  0  0
   -3.8733  -12.9646  -18.4030 N   0  3  0  0  0  0
   -5.2540  -10.0231  -15.8230 O   0  0  0  0  0  0
   -5.2540  -12.6860  -15.0230 O   0  5  0  0  0  0
   -2.9129  -11.2253  -20.0042 C   0  0  0  0  0  0
   -2.0541  -10.1234  -19.8224 O   0  0  0  0  0  0
   -3.4078  -14.0306  -19.2840 C   0  0  0  0  0  0
   -2.6246  -15.0860  -18.7661 C   0  0  0  0  0  0
   -1.9353  -15.9595  -19.6258 C   0  0  0  0  0  0
   -2.0540  -15.8115  -21.0205 C   0  0  0  0  0  0
   -2.9468  -14.8526  -21.5434 C   0  0  0  0  0  0
   -3.6540  -13.9936  -20.6787 C   0  0  0  0  0  0
   -1.2814  -16.7215  -21.9528 C   0  0  0  0  0  0
   -4.4769  -14.3755  -16.9788 H   0  0  0  0  0  0
   -4.1088   -9.5978  -18.1793 H   0  0  0  0  0  0
   -5.4384   -9.1899  -16.2421 H   0  0  0  0  0  0
   -3.6006  -11.0132  -20.8235 H   0  0  0  0  0  0
   -2.2246  -12.0001  -20.3335 H   0  0  0  0  0  0
   -1.3070  -10.2860  -20.3825 H   0  0  0  0  0  0
   -2.4541  -15.1693  -17.7073 H   0  0  0  0  0  0
   -1.2886  -16.7202  -19.2115 H   0  0  0  0  0  0
   -3.0865  -14.7704  -22.6121 H   0  0  0  0  0  0
   -4.3118  -13.2506  -21.1057 H   0  0  0  0  0  0
   -0.3659  -17.0796  -21.4807 H   0  0  0  0  0  0
   -1.8893  -17.5856  -22.2230 H   0  0  0  0  0  0
   -1.0058  -16.1956  -22.8673 H   0  0  0  0  0  0
  1  2  2  0  0  0
  1  8  1  0  0  0
  1  4  1  0  0  0
  2  6  1  0  0  0
  2 18  1  0  0  0
  3 19  1  0  0  0
  3  5  1  0  0  0
  3  4  2  0  0  0
  4  7  1  0  0  0
  5  9  1  0  0  0
  5  6  2  0  0  0
  6 11  1  0  0  0
  7 20  1  0  0  0
  9 10  1  0  0  0
  9 21  1  0  0  0
  9 22  1  0  0  0
 10 23  1  0  0  0
 11 12  2  0  0  0
 11 16  1  0  0  0
 12 13  1  0  0  0
 12 24  1  0  0  0
 13 14  2  0  0  0
 13 25  1  0  0  0
 14 15  1  0  0  0
 14 17  1  0  0  0
 15 16  2  0  0  0
 15 26  1  0  0  0
 16 27  1  0  0  0
 17 28  1  0  0  0
 17 29  1  0  0  0
 17 30  1  0  0  0
M  CHG  2   6   1   8  -1
M  END
> <s_m_entry_id>
133

> <s_m_entry_name>
glide-dock_SP_comt_chembl_pv.132

> <s_m_Source_Path>
/home/csk/Desktop/cluster/DUD-E-result/comt/glide-dock_SP_comt_chembl

> <s_m_Source_File>
glide-dock_SP_comt_chembl_pv.maegz

> <i_m_Source_File_Index>
132

> <chembl_id>
CHEMBL3425727

> <chembl_pref_name>
None

> <i_lp_mmshare_version>
53161

> <i_f3d_flags>
0

> <r_lp_tautomer_probability>
0.995892618013405

> <s_lp_Force_Field>
OPLS_2005

> <r_lp_Energy>
19.286284

> <b_lp_Chiralities_Consistent>
1

> <s_lp_Variant>
CHEMBL2023_lig24-1

> <s_i_glide_gridfile>
glide-grid_3bwm

> <i_i_glide_lignum>
33

> <i_i_glide_rotatable_bonds>
4

> <r_i_docking_score>
-8.00754725309327

> <r_i_glide_ligand_efficiency>
-0.471032191358428

> <r_i_glide_ligand_efficiency_sa>
-1.21115640110351

> <r_i_glide_ligand_efficiency_ln>
-2.08899075902201

> <r_i_glide_gscore>
-8.00754725309327

> <r_i_glide_lipo>
-0.637582401097649

> <r_i_glide_hbond>
-0.418430892033711

> <r_i_glide_metal>
-2.3

> <r_i_glide_rewards>
-2.13240531818182

> <r_i_glide_evdw>
-14.3418264389038

> <r_i_glide_ecoul>
-16.2781600952148

> <r_i_glide_erotb>
0.639686694447319

> <r_i_glide_esite>
0

> <r_i_glide_emodel>
-64.5011320605004

> <r_i_glide_energy>
-30.6199865341187

> <r_i_glide_einternal>
7.33117628097534

> <i_i_glide_confnum>
9

> <i_i_glide_posenum>
80

> <r_i_glide_eff_state_penalty>
0

> <s_user_duplicate_titles>
CHEMBL2023_lig24,CHEMBL2023_lig24,CHEMBL2023_lig24,CHEMBL2023_lig24

> <s_m_subgroup_title>
glide-dock_SP_comt_chembl_pv

> <s_m_subgroupid>
glide-dock_SP_comt_chembl_pv

> <b_m_subgroup_collapsed>
1

$$$$
CHEMBL2023_lig102 
                    3D
 Schrodinger Suite 2021-1.
 35 37  0  0  1  0            999 V2000
   -4.8418  -12.4668  -16.0052 C   0  0  0  0  0  0
   -4.3322  -13.5337  -16.7650 C   0  0  0  0  0  0
   -4.4669  -11.0118  -17.9190 C   0  0  0  0  0  0
   -4.8590  -11.1812  -16.5793 C   0  0  0  0  0  0
   -4.0330  -12.1371  -18.6489 C   0  0  0  0  0  0
   -3.9257  -13.3523  -18.0435 N   0  3  0  0  0  0
   -3.3572  -14.5205  -18.7676 C   0  0  0  0  0  0
   -3.0655  -14.2568  -20.2660 C   0  0  0  0  0  0
   -3.9784  -13.2688  -20.8316 N   0  0  1  0  0  0
   -3.7270  -12.0199  -20.1219 C   0  0  0  0  0  0
   -5.2562  -10.1202  -15.8296 O   0  0  0  0  0  0
   -5.2540  -12.6918  -14.7224 O   0  5  0  0  0  0
   -3.7195  -13.1068  -22.2636 C   0  0  0  0  0  0
   -4.6738  -12.1415  -22.9578 C   0  0  0  0  0  0
   -4.2781  -10.8094  -23.2152 C   0  0  0  0  0  0
   -5.1647   -9.9135  -23.8418 C   0  0  0  0  0  0
   -6.4514  -10.3415  -24.2193 C   0  0  0  0  0  0
   -6.8514  -11.6679  -23.9659 C   0  0  0  0  0  0
   -5.9661  -12.5662  -23.3377 C   0  0  0  0  0  0
   -3.0488  -10.3774  -22.8425 F   0  0  0  0  0  0
   -6.3637  -13.8392  -23.1027 F   0  0  0  0  0  0
   -4.2654  -14.5387  -16.3764 H   0  0  0  0  0  0
   -4.5289  -10.0441  -18.3966 H   0  0  0  0  0  0
   -4.0541  -15.3447  -18.6552 H   0  0  0  0  0  0
   -2.4540  -14.8217  -18.2317 H   0  0  0  0  0  0
   -3.1283  -15.1923  -20.8232 H   0  0  0  0  0  0
   -2.0509  -13.8943  -20.3853 H   0  0  0  0  0  0
   -2.6945  -11.6941  -20.2562 H   0  0  0  0  0  0
   -4.3667  -11.2347  -20.5222 H   0  0  0  0  0  0
   -5.4912   -9.3456  -16.3276 H   0  0  0  0  0  0
   -3.8122  -14.0754  -22.7554 H   0  0  0  0  0  0
   -2.6909  -12.7815  -22.4281 H   0  0  0  0  0  0
   -4.8564   -8.8936  -24.0314 H   0  0  0  0  0  0
   -7.1322   -9.6539  -24.7016 H   0  0  0  0  0  0
   -7.8384  -11.9972  -24.2558 H   0  0  0  0  0  0
  1  2  2  0  0  0
  1 12  1  0  0  0
  1  4  1  0  0  0
  2  6  1  0  0  0
  2 22  1  0  0  0
  3 23  1  0  0  0
  3  5  1  0  0  0
  3  4  2  0  0  0
  4 11  1  0  0  0
  5 10  1  0  0  0
  5  6  2  0  0  0
  6  7  1  0  0  0
  7  8  1  0  0  0
  7 24  1  0  0  0
  7 25  1  0  0  0
  8  9  1  0  0  0
  8 26  1  0  0  0
  8 27  1  0  0  0
  9 10  1  0  0  0
  9 13  1  0  0  0
 10 28  1  0  0  0
 10 29  1  0  0  0
 11 30  1  0  0  0
 13 14  1  0  0  0
 13 31  1  0  0  0
 13 32  1  0  0  0
 14 15  2  0  0  0
 14 19  1  0  0  0
 15 16  1  0  0  0
 15 20  1  0  0  0
 16 17  2  0  0  0
 16 33  1  0  0  0
 17 18  1  0  0  0
 17 34  1  0  0  0
 18 19  2  0  0  0
 18 35  1  0  0  0
 19 21  1  0  0  0
M  CHG  2   6   1  12  -1
M  END
> <s_m_entry_id>
135

> <s_m_entry_name>
glide-dock_SP_comt_chembl_pv.134

> <s_m_Source_Path>
/home/csk/Desktop/cluster/DUD-E-result/comt/glide-dock_SP_comt_chembl

> <s_m_Source_File>
glide-dock_SP_comt_chembl_pv.maegz

> <i_m_Source_File_Index>
134

> <chembl_id>
CHEMBL4449462

> <chembl_pref_name>
None

> <i_lp_mmshare_version>
53161

> <i_f3d_flags>
0

> <r_lp_tautomer_probability>
0.995892618013405

> <s_lp_Force_Field>
OPLS_2005

> <r_lp_Energy>
17.072598

> <b_lp_Chiralities_Consistent>
1

> <s_lp_Variant>
CHEMBL2023_lig102 -1

> <s_i_glide_gridfile>
glide-grid_3bwm

> <i_i_glide_lignum>
124

> <i_i_glide_rotatable_bonds>
3

> <r_i_docking_score>
-7.99648297843962

> <r_i_glide_ligand_efficiency>
-0.38078490373522

> <r_i_glide_ligand_efficiency_sa>
-1.05055667584991

> <r_i_glide_ligand_efficiency_ln>
-1.97711425800389

> <r_i_glide_gscore>
-7.99648297843962

> <r_i_glide_lipo>
-0.712145515188815

> <r_i_glide_hbond>
-0.123793919250966

> <r_i_glide_metal>
-2.3

> <r_i_glide_rewards>
-2.16626818636364

> <r_i_glide_evdw>
-17.0325241088867

> <r_i_glide_ecoul>
-15.1334285736084

> <r_i_glide_erotb>
0.427365133849389

> <r_i_glide_esite>
0

> <r_i_glide_emodel>
-69.946373488153

> <r_i_glide_energy>
-32.1659526824951

> <r_i_glide_einternal>
0.340360403060913

> <i_i_glide_confnum>
1

> <i_i_glide_posenum>
137

> <r_i_glide_eff_state_penalty>
0

> <s_user_duplicate_titles>
CHEMBL2023_lig102 ,CHEMBL2023_lig102 ,CHEMBL2023_lig102 ,CHEMBL2023_lig102 ,CHEMBL2023_lig102 

> <s_m_subgroup_title>
glide-dock_SP_comt_chembl_pv

> <s_m_subgroupid>
glide-dock_SP_comt_chembl_pv

> <b_m_subgroup_collapsed>
1

$$$$
CHEMBL2023_lig126
                    3D
 Schrodinger Suite 2021-1.
 37 39  0  0  1  0            999 V2000
   -4.7610  -11.0788  -16.8178 C   0  0  0  0  0  0
   -4.7569  -12.4715  -16.6230 C   0  0  0  0  0  0
   -4.2427  -13.3316  -17.6252 C   0  0  0  0  0  0
   -3.7297  -12.7883  -18.8301 C   0  0  0  0  0  0
   -3.7593  -11.3894  -19.0074 C   0  0  0  0  0  0
   -4.2542  -10.5266  -18.0137 C   0  0  0  0  0  0
   -3.1021  -13.6024  -19.8806 C   0  0  0  0  0  0
   -2.9809  -14.9297  -19.9934 N   0  0  0  0  0  0
   -2.1743  -15.0110  -21.0956 C   0  0  0  0  0  0
   -1.8184  -13.8761  -21.6706 N   0  0  0  0  0  0
   -2.4540  -12.9248  -20.8694 O   0  0  0  0  0  0
   -1.6540  -16.2944  -21.6049 C   0  0  0  0  0  0
   -4.1676   -9.0760  -18.2314 N   0  3  0  0  0  0
   -4.9795   -8.3407  -17.6809 O   0  5  0  0  0  0
   -3.2540   -8.6860  -18.9464 O   0  0  0  0  0  0
   -5.2540  -10.2860  -15.8230 O   0  0  0  0  0  0
   -5.2540  -12.9483  -15.4385 O   0  0  0  0  0  0
   -2.0040  -16.7351  -22.9099 C   0  0  0  0  0  0
   -1.5582  -17.9384  -23.3964 N   0  3  0  0  0  0
   -0.7629  -18.7493  -22.6233 C   0  0  0  0  0  0
   -0.3862  -18.3520  -21.3230 C   0  0  0  0  0  0
   -0.8128  -17.1114  -20.8120 C   0  0  0  0  0  0
   -1.9022  -18.3040  -24.5831 O   0  5  0  0  0  0
   -0.2948  -20.0892  -23.1841 C   0  0  0  0  0  0
   -0.3501  -16.6853  -19.4230 C   0  0  0  0  0  0
   -3.0508  -15.7745  -23.9079 Cl  0  0  0  0  0  0
    0.5956  -19.4011  -20.3535 Cl  0  0  0  0  0  0
   -4.2289  -14.4005  -17.4622 H   0  0  0  0  0  0
   -3.3750  -10.9495  -19.9162 H   0  0  0  0  0  0
   -5.4740   -9.4153  -16.1547 H   0  0  0  0  0  0
   -5.7390  -13.7787  -15.5639 H   0  0  0  0  0  0
   -0.7357  -20.9054  -22.6116 H   0  0  0  0  0  0
   -0.5541  -20.2426  -24.2310 H   0  0  0  0  0  0
    0.7896  -20.1692  -23.1092 H   0  0  0  0  0  0
   -0.5277  -15.6358  -19.2006 H   0  0  0  0  0  0
   -0.8540  -17.2810  -18.6613 H   0  0  0  0  0  0
    0.7251  -16.8363  -19.3260 H   0  0  0  0  0  0
  1  2  2  0  0  0
  1 16  1  0  0  0
  1  6  1  0  0  0
  2 17  1  0  0  0
  2  3  1  0  0  0
  3  4  2  0  0  0
  3 28  1  0  0  0
  4  7  1  0  0  0
  4  5  1  0  0  0
  5  6  2  0  0  0
  5 29  1  0  0  0
  6 13  1  0  0  0
  7  8  2  0  0  0
  7 11  1  0  0  0
  8  9  1  0  0  0
  9 10  2  0  0  0
  9 12  1  0  0  0
 10 11  1  0  0  0
 12 18  2  0  0  0
 12 22  1  0  0  0
 13 14  1  0  0  0
 13 15  2  0  0  0
 16 30  1  0  0  0
 17 31  1  0  0  0
 18 19  1  0  0  0
 18 26  1  0  0  0
 19 20  2  0  0  0
 19 23  1  0  0  0
 20 21  1  0  0  0
 20 24  1  0  0  0
 21 22  2  0  0  0
 21 27  1  0  0  0
 22 25  1  0  0  0
 24 32  1  0  0  0
 24 33  1  0  0  0
 24 34  1  0  0  0
 25 35  1  0  0  0
 25 36  1  0  0  0
 25 37  1  0  0  0
M  CHG  4  13   1  14  -1  19   1  23  -1
M  END
> <s_m_entry_id>
136

> <s_m_entry_name>
glide-dock_SP_comt_chembl_pv.135

> <s_m_Source_Path>
/home/csk/Desktop/cluster/DUD-E-result/comt/glide-dock_SP_comt_chembl

> <s_m_Source_File>
glide-dock_SP_comt_chembl_pv.maegz

> <i_m_Source_File_Index>
135

> <chembl_id>
CHEMBL1089318

> <chembl_pref_name>
OPICAPONE

> <i_lp_mmshare_version>
53161

> <i_f3d_flags>
0

> <r_lp_tautomer_probability>
0.999999999999776

> <s_lp_Force_Field>
OPLS_2005

> <r_lp_Energy>
25.674012

> <b_lp_Chiralities_Consistent>
1

> <s_lp_Variant>
CHEMBL2023_lig126-1

> <s_i_glide_gridfile>
glide-grid_3bwm

> <i_i_glide_lignum>
151

> <i_i_glide_rotatable_bonds>
5

> <r_i_docking_score>
-7.99044683552063

> <r_i_glide_ligand_efficiency>
-0.295942475389653

> <r_i_glide_ligand_efficiency_sa>
-0.887827425193581

> <r_i_glide_ligand_efficiency_ln>
-1.86004429049764

> <r_i_glide_gscore>
-7.99044683552063

> <r_i_glide_lipo>
-0.752477426461308

> <r_i_glide_hbond>
-0.198258501953694

> <r_i_glide_metal>
-2.3

> <r_i_glide_rewards>
-0.592032954545454

> <r_i_glide_evdw>
-23.5824661254883

> <r_i_glide_ecoul>
-21.2541389465332

> <r_i_glide_erotb>
0.231104757807657

> <r_i_glide_esite>
-0.0115385621134376

> <r_i_glide_emodel>
-74.5138621328801

> <r_i_glide_energy>
-44.8366050720215

> <r_i_glide_einternal>
2.56730341911316

> <i_i_glide_confnum>
6

> <i_i_glide_posenum>
146

> <r_i_glide_eff_state_penalty>
0

> <s_user_duplicate_titles>
CHEMBL2023_lig126,CHEMBL2023_lig126,CHEMBL2023_lig126,CHEMBL2023_lig126,CHEMBL2023_lig126

> <s_m_subgroup_title>
glide-dock_SP_comt_chembl_pv

> <s_m_subgroupid>
glide-dock_SP_comt_chembl_pv

> <b_m_subgroup_collapsed>
1

$$$$
CHEMBL2023_lig119
                    3D
 Schrodinger Suite 2021-1.
 37 38  0  0  1  0            999 V2000
   -4.7938  -12.3811  -16.2705 C   0  0  0  0  0  0
   -4.7902  -11.0465  -16.6940 C   0  0  0  0  0  0
   -4.3064  -10.7185  -17.9825 C   0  0  0  0  0  0
   -4.3069  -13.3923  -17.1101 C   0  0  0  0  0  0
   -3.8237  -13.1192  -18.4090 C   0  0  0  0  0  0
   -3.8584  -11.7550  -18.8378 C   0  0  0  0  0  0
   -3.2862  -11.6322  -20.5025 S   0  0  0  0  0  0
   -2.9375  -13.3360  -20.5753 C   0  0  0  0  0  0
   -3.2540  -13.9977  -19.4080 C   0  0  0  0  0  0
   -3.0209  -15.6405  -19.0230 Cl  0  0  0  0  0  0
   -2.3275  -13.8202  -21.8195 C   0  0  0  0  0  0
   -1.9849  -15.1280  -21.7453 O   0  0  0  0  0  0
   -2.1475  -13.0914  -22.7978 O   0  0  0  0  0  0
   -5.2540  -12.6860  -15.0230 O   0  0  0  0  0  0
   -5.2540  -10.1032  -15.8230 O   0  0  0  0  0  0
   -4.2156   -9.3147  -18.4105 N   0  3  0  0  0  0
   -3.2104   -8.9771  -19.0230 O   0  0  0  0  0  0
   -5.1129   -8.5474  -18.0797 O   0  5  0  0  0  0
   -1.1921  -15.6419  -22.7778 C   0  0  0  0  0  0
   -0.0712  -16.3074  -22.2764 O   0  0  0  0  0  0
    0.9246  -15.5187  -21.7970 C   0  0  0  0  0  0
    2.0572  -16.3403  -21.1672 C   0  0  0  0  0  0
    0.9536  -14.2860  -21.8246 O   0  0  0  0  0  0
    1.5746  -17.0181  -19.8736 C   0  0  0  0  0  0
    3.3249  -15.4996  -20.9260 C   0  0  0  0  0  0
   -4.3112  -14.4151  -16.7643 H   0  0  0  0  0  0
   -5.6540  -13.5624  -15.0507 H   0  0  0  0  0  0
   -5.4726   -9.2734  -16.2432 H   0  0  0  0  0  0
   -0.8692  -14.9001  -23.5122 H   0  0  0  0  0  0
   -1.7959  -16.3774  -23.3096 H   0  0  0  0  0  0
    2.3118  -17.1234  -21.8821 H   0  0  0  0  0  0
    0.7382  -17.6922  -20.0621 H   0  0  0  0  0  0
    1.2460  -16.2860  -19.1355 H   0  0  0  0  0  0
    2.3707  -17.6109  -19.4229 H   0  0  0  0  0  0
    3.6883  -15.0586  -21.8549 H   0  0  0  0  0  0
    3.1460  -14.6860  -20.2230 H   0  0  0  0  0  0
    4.1297  -16.1136  -20.5212 H   0  0  0  0  0  0
  1 14  1  0  0  0
  1  2  2  0  0  0
  1  4  1  0  0  0
  2 15  1  0  0  0
  2  3  1  0  0  0
  3  6  2  0  0  0
  3 16  1  0  0  0
  4  5  2  0  0  0
  4 26  1  0  0  0
  5  9  1  0  0  0
  5  6  1  0  0  0
  6  7  1  0  0  0
  7  8  1  0  0  0
  8 11  1  0  0  0
  8  9  2  0  0  0
  9 10  1  0  0  0
 11 12  1  0  0  0
 11 13  2  0  0  0
 12 19  1  0  0  0
 14 27  1  0  0  0
 15 28  1  0  0  0
 16 17  2  0  0  0
 16 18  1  0  0  0
 19 20  1  0  0  0
 19 29  1  0  0  0
 19 30  1  0  0  0
 20 21  1  0  0  0
 21 22  1  0  0  0
 21 23  2  0  0  0
 22 24  1  0  0  0
 22 25  1  0  0  0
 22 31  1  0  0  0
 24 32  1  0  0  0
 24 33  1  0  0  0
 24 34  1  0  0  0
 25 35  1  0  0  0
 25 36  1  0  0  0
 25 37  1  0  0  0
M  CHG  2  16   1  18  -1
M  END
> <s_m_entry_id>
139

> <s_m_entry_name>
glide-dock_SP_comt_chembl_pv.138

> <s_m_Source_Path>
/home/csk/Desktop/cluster/DUD-E-result/comt/glide-dock_SP_comt_chembl

> <s_m_Source_File>
glide-dock_SP_comt_chembl_pv.maegz

> <i_m_Source_File_Index>
138

> <chembl_id>
CHEMBL1089537

> <chembl_pref_name>
None

> <i_lp_mmshare_version>
53161

> <i_f3d_flags>
0

> <r_lp_tautomer_probability>
1

> <s_lp_Force_Field>
OPLS_2005

> <r_lp_Energy>
14.30207

> <b_lp_Chiralities_Consistent>
1

> <s_lp_Variant>
CHEMBL2023_lig119-1

> <s_i_glide_gridfile>
glide-grid_3bwm

> <i_i_glide_lignum>
144

> <i_i_glide_rotatable_bonds>
9

> <r_i_docking_score>
-7.98023817527013

> <r_i_glide_ligand_efficiency>
-0.319209527010805

> <r_i_glide_ligand_efficiency_sa>
-0.933374318184662

> <r_i_glide_ligand_efficiency_ln>
-1.89155559597904

> <r_i_glide_gscore>
-7.98023817527013

> <r_i_glide_lipo>
-1.01705136438884

> <r_i_glide_hbond>
0

> <r_i_glide_metal>
-2.3

> <r_i_glide_rewards>
-0.747693770769036

> <r_i_glide_evdw>
-30.1474876403809

> <r_i_glide_ecoul>
-20.2810497283936

> <r_i_glide_erotb>
0.64171788603231

> <r_i_glide_esite>
-0.00767908486649198

> <r_i_glide_emodel>
-81.654401355386

> <r_i_glide_energy>
-50.4285373687744

> <r_i_glide_einternal>
3.29746627807617

> <i_i_glide_confnum>
10

> <i_i_glide_posenum>
300

> <r_i_glide_eff_state_penalty>
0

> <s_user_duplicate_titles>
CHEMBL2023_lig119,CHEMBL2023_lig119,CHEMBL2023_lig119,CHEMBL2023_lig119,CHEMBL2023_lig119,621466,621466,621466,621466,621466

> <s_m_subgroup_title>
glide-dock_SP_comt_chembl_pv

> <s_m_subgroupid>
glide-dock_SP_comt_chembl_pv

> <b_m_subgroup_collapsed>
1

$$$$
CHEMBL2023_lig90 
                    3D
 Schrodinger Suite 2021-1.
 39 41  0  0  1  0            999 V2000
   -4.8550  -12.4285  -16.0845 C   0  0  0  0  0  0
   -4.4081  -13.4859  -16.8975 C   0  0  0  0  0  0
   -4.4677  -10.9115  -17.9447 C   0  0  0  0  0  0
   -4.8553  -11.1229  -16.6098 C   0  0  0  0  0  0
   -4.0745  -12.0173  -18.7257 C   0  0  0  0  0  0
   -4.0240  -13.2631  -18.1762 N   0  3  0  0  0  0
   -3.4970  -14.4040  -18.9554 C   0  0  0  0  0  0
   -3.5641  -14.1704  -20.4766 C   0  0  0  0  0  0
   -2.9697  -12.8787  -20.8000 N   0  0  2  0  0  0
   -3.8026  -11.8365  -20.2068 C   0  0  0  0  0  0
   -5.2562  -10.0868  -15.8232 O   0  0  0  0  0  0
   -5.2540  -12.6860  -14.8029 O   0  5  0  0  0  0
   -2.9392  -12.7240  -22.2567 C   0  0  0  0  0  0
   -2.3486  -11.4073  -22.7314 C   0  0  0  0  0  0
   -0.9526  -11.2378  -22.8013 C   0  0  0  0  0  0
   -0.4137  -10.0091  -23.2288 C   0  0  0  0  0  0
   -1.2544   -8.9321  -23.5770 C   0  0  0  0  0  0
   -2.6582   -9.1075  -23.5037 C   0  0  0  0  0  0
   -3.1982  -10.3403  -23.0908 C   0  0  0  0  0  0
   -0.6404   -7.7557  -23.9500 O   0  0  0  0  0  0
   -1.4593   -6.6424  -24.2798 C   0  0  0  0  0  0
   -4.3671  -14.5077  -16.5472 H   0  0  0  0  0  0
   -4.5132   -9.9244  -18.3825 H   0  0  0  0  0  0
   -4.0539  -15.2985  -18.6747 H   0  0  0  0  0  0
   -2.4672  -14.5457  -18.6255 H   0  0  0  0  0  0
   -4.5960  -14.2124  -20.8299 H   0  0  0  0  0  0
   -3.0188  -14.9659  -20.9868 H   0  0  0  0  0  0
   -3.3221  -10.8672  -20.3436 H   0  0  0  0  0  0
   -4.7666  -11.7882  -20.7171 H   0  0  0  0  0  0
   -5.4960   -9.2983  -16.2964 H   0  0  0  0  0  0
   -3.9440  -12.8302  -22.6692 H   0  0  0  0  0  0
   -2.3448  -13.5311  -22.6874 H   0  0  0  0  0  0
   -0.2926  -12.0473  -22.5246 H   0  0  0  0  0  0
    0.6581   -9.8852  -23.2760 H   0  0  0  0  0  0
   -3.3424   -8.3107  -23.7540 H   0  0  0  0  0  0
   -4.2703  -10.4577  -23.0383 H   0  0  0  0  0  0
   -0.8267   -5.8044  -24.5738 H   0  0  0  0  0  0
   -2.1225   -6.8636  -25.1172 H   0  0  0  0  0  0
   -2.0521   -6.3193  -23.4237 H   0  0  0  0  0  0
  1  2  2  0  0  0
  1 12  1  0  0  0
  1  4  1  0  0  0
  2  6  1  0  0  0
  2 22  1  0  0  0
  3 23  1  0  0  0
  3  5  1  0  0  0
  3  4  2  0  0  0
  4 11  1  0  0  0
  5 10  1  0  0  0
  5  6  2  0  0  0
  6  7  1  0  0  0
  7  8  1  0  0  0
  7 24  1  0  0  0
  7 25  1  0  0  0
  8  9  1  0  0  0
  8 26  1  0  0  0
  8 27  1  0  0  0
  9 10  1  0  0  0
  9 13  1  0  0  0
 10 28  1  0  0  0
 10 29  1  0  0  0
 11 30  1  0  0  0
 13 14  1  0  0  0
 13 31  1  0  0  0
 13 32  1  0  0  0
 14 15  2  0  0  0
 14 19  1  0  0  0
 15 16  1  0  0  0
 15 33  1  0  0  0
 16 17  2  0  0  0
 16 34  1  0  0  0
 17 18  1  0  0  0
 17 20  1  0  0  0
 18 19  2  0  0  0
 18 35  1  0  0  0
 19 36  1  0  0  0
 20 21  1  0  0  0
 21 37  1  0  0  0
 21 38  1  0  0  0
 21 39  1  0  0  0
M  CHG  2   6   1  12  -1
M  END
> <s_m_entry_id>
147

> <s_m_entry_name>
glide-dock_SP_comt_chembl_pv.146

> <s_m_Source_Path>
/home/csk/Desktop/cluster/DUD-E-result/comt/glide-dock_SP_comt_chembl

> <s_m_Source_File>
glide-dock_SP_comt_chembl_pv.maegz

> <i_m_Source_File_Index>
146

> <chembl_id>
CHEMBL4518323

> <chembl_pref_name>
None

> <i_lp_mmshare_version>
53161

> <i_f3d_flags>
0

> <r_lp_tautomer_probability>
0.995892618013405

> <s_lp_Force_Field>
OPLS_2005

> <r_lp_Energy>
18.753576

> <b_lp_Chiralities_Consistent>
1

> <s_lp_Variant>
CHEMBL2023_lig90 -1

> <s_i_glide_gridfile>
glide-grid_3bwm

> <i_i_glide_lignum>
112

> <i_i_glide_rotatable_bonds>
4

> <r_i_docking_score>
-7.94200509882893

> <r_i_glide_ligand_efficiency>
-0.378190718991854

> <r_i_glide_ligand_efficiency_sa>
-1.0433995168507

> <r_i_glide_ligand_efficiency_ln>
-1.96364471235307

> <r_i_glide_gscore>
-7.94200509882893

> <r_i_glide_lipo>
-0.460499697221443

> <r_i_glide_hbond>
-0.240556835992875

> <r_i_glide_metal>
-2.3

> <r_i_glide_rewards>
-2.20686980820393

> <r_i_glide_evdw>
-17.0988693237305

> <r_i_glide_ecoul>
-15.4807548522949

> <r_i_glide_erotb>
0.442977936620071

> <r_i_glide_esite>
0

> <r_i_glide_emodel>
-69.4941758372095

> <r_i_glide_energy>
-32.5796241760254

> <r_i_glide_einternal>
0.815100491046906

> <i_i_glide_confnum>
2

> <i_i_glide_posenum>
58

> <r_i_glide_eff_state_penalty>
0

> <s_user_duplicate_titles>
CHEMBL2023_lig90 ,CHEMBL2023_lig90 ,CHEMBL2023_lig90 ,CHEMBL2023_lig90 ,CHEMBL2023_lig90 

> <s_m_subgroup_title>
glide-dock_SP_comt_chembl_pv

> <s_m_subgroupid>
glide-dock_SP_comt_chembl_pv

> <b_m_subgroup_collapsed>
1

$$$$
CHEMBL2023_lig3
                    3D
 Schrodinger Suite 2021-1.
 31 32  0  0  1  0            999 V2000
   -4.8260  -11.0093  -16.8916 C   0  0  0  0  0  0
   -4.6042  -12.3969  -16.7905 C   0  0  0  0  0  0
   -4.1253  -13.1071  -17.9114 C   0  0  0  0  0  0
   -3.8854  -12.4467  -19.1394 C   0  0  0  0  0  0
   -4.1559  -11.0658  -19.2303 C   0  0  0  0  0  0
   -4.5906  -10.3470  -18.1056 C   0  0  0  0  0  0
   -3.3518  -13.2195  -20.2772 C   0  0  0  0  0  0
   -2.4849  -12.8792  -21.2613 C   0  0  0  0  0  0
   -5.2669  -10.2861  -15.8230 O   0  0  0  0  0  0
   -4.8544  -13.0452  -15.6122 O   0  0  0  0  0  0
   -4.7070   -8.8967  -18.1616 N   0  3  0  0  0  0
   -5.8181   -8.3956  -18.0412 O   0  0  0  0  0  0
   -3.6540   -8.2860  -18.2230 O   0  5  0  0  0  0
   -2.0870  -13.9715  -22.5838 S   0  0  0  0  0  0
   -1.0409  -12.7760  -23.2670 C   0  0  0  0  0  0
   -0.9524  -11.6528  -22.5496 N   0  0  0  0  0  0
   -1.7010  -11.6386  -21.4230 C   0  0  0  0  0  0
   -1.6748  -10.6860  -20.6414 O   0  0  0  0  0  0
   -0.1063  -10.5190  -22.9556 C   0  0  0  0  0  0
   -0.8986   -9.4893  -23.7752 C   0  0  0  0  0  0
   -0.4475  -12.9837  -24.3245 O   0  0  0  0  0  0
   -3.9379  -14.1682  -17.8252 H   0  0  0  0  0  0
   -4.0251  -10.5339  -20.1600 H   0  0  0  0  0  0
   -3.7921  -14.2021  -20.3662 H   0  0  0  0  0  0
   -5.6148   -9.4366  -16.0886 H   0  0  0  0  0  0
   -5.3965  -13.8318  -15.7488 H   0  0  0  0  0  0
    0.7493  -10.8660  -23.5378 H   0  0  0  0  0  0
    0.3284  -10.0346  -22.0792 H   0  0  0  0  0  0
   -0.2615   -8.6533  -24.0645 H   0  0  0  0  0  0
   -1.7365   -9.0861  -23.2057 H   0  0  0  0  0  0
   -1.2959   -9.9334  -24.6884 H   0  0  0  0  0  0
  1  2  2  0  0  0
  1  6  1  0  0  0
  1  9  1  0  0  0
  2  3  1  0  0  0
  2 10  1  0  0  0
  3  4  2  0  0  0
  3 22  1  0  0  0
  4  5  1  0  0  0
  4  7  1  0  0  0
  5  6  2  0  0  0
  5 23  1  0  0  0
  6 11  1  0  0  0
  7  8  2  0  0  0
  7 24  1  0  0  0
  8 14  1  0  0  0
  8 17  1  0  0  0
  9 25  1  0  0  0
 10 26  1  0  0  0
 11 12  2  0  0  0
 11 13  1  0  0  0
 14 15  1  0  0  0
 15 16  1  0  0  0
 15 21  2  0  0  0
 16 17  1  0  0  0
 16 19  1  0  0  0
 17 18  2  0  0  0
 19 20  1  0  0  0
 19 27  1  0  0  0
 19 28  1  0  0  0
 20 29  1  0  0  0
 20 30  1  0  0  0
 20 31  1  0  0  0
M  CHG  2  11   1  13  -1
M  END
> <s_m_entry_id>
148

> <s_m_entry_name>
glide-dock_SP_comt_chembl_pv.147

> <s_m_Source_Path>
/home/csk/Desktop/cluster/DUD-E-result/comt/glide-dock_SP_comt_chembl

> <s_m_Source_File>
glide-dock_SP_comt_chembl_pv.maegz

> <i_m_Source_File_Index>
147

> <chembl_id>
CHEMBL3818350

> <chembl_pref_name>
None

> <i_lp_mmshare_version>
53161

> <i_f3d_flags>
0

> <r_lp_tautomer_probability>
1

> <s_lp_Force_Field>
OPLS_2005

> <r_lp_Energy>
21.584335

> <b_lp_Chiralities_Consistent>
1

> <s_lp_Variant>
CHEMBL2023_lig3-1

> <s_i_glide_gridfile>
glide-grid_3bwm

> <i_i_glide_lignum>
7

> <i_i_glide_rotatable_bonds>
5

> <r_i_docking_score>
-7.93213444231213

> <r_i_glide_ligand_efficiency>
-0.377720687729149

> <r_i_glide_ligand_efficiency_sa>
-1.04210273623768

> <r_i_glide_ligand_efficiency_ln>
-1.96120421247483

> <r_i_glide_gscore>
-7.93213444231213

> <r_i_glide_lipo>
-0.573855853903281

> <r_i_glide_hbond>
-0.139986284101012

> <r_i_glide_metal>
-2.3

> <r_i_glide_rewards>
-1.29352090909091

> <r_i_glide_evdw>
-21.7276458740234

> <r_i_glide_ecoul>
-18.1008358001709

> <r_i_glide_erotb>
0.192452299773928

> <r_i_glide_esite>
-0.0157160312640453

> <r_i_glide_emodel>
-62.7631995005671

> <r_i_glide_energy>
-39.8284816741943

> <r_i_glide_einternal>
4.17577743530273

> <i_i_glide_confnum>
1

> <i_i_glide_posenum>
89

> <r_i_glide_eff_state_penalty>
0

> <s_user_duplicate_titles>
CHEMBL2023_lig3,CHEMBL2023_lig3,CHEMBL2023_lig3,CHEMBL2023_lig3,CHEMBL2023_lig3

> <s_m_subgroup_title>
glide-dock_SP_comt_chembl_pv

> <s_m_subgroupid>
glide-dock_SP_comt_chembl_pv

> <b_m_subgroup_collapsed>
1

$$$$
CHEMBL2023_lig109 
                    3D
 Schrodinger Suite 2021-1.
 39 39  0  0  1  0            999 V2000
   -2.8331  -14.6800  -19.8212 C   0  0  0  0  0  0
   -2.9459  -14.2696  -21.1663 C   0  0  0  0  0  0
   -3.5858  -13.0406  -21.4709 C   0  0  0  0  0  0
   -4.1084  -12.2529  -20.4214 C   0  0  0  0  0  0
   -4.0044  -12.6535  -19.0710 C   0  0  0  0  0  0
   -3.3505  -13.8757  -18.7892 C   0  0  0  0  0  0
   -4.6588  -11.8741  -17.9894 C   0  0  0  0  0  0
   -4.7241  -10.5062  -17.9366 C   0  0  0  0  0  0
   -5.2539  -12.7196  -17.0601 N   0  0  0  0  0  0
   -3.8856   -9.7334  -18.7939 C   0  0  0  0  0  0
   -3.0981   -9.1657  -19.4241 N   0  0  0  0  0  0
   -2.2127  -15.8541  -19.5001 O   0  0  0  0  0  0
   -2.4383  -15.0727  -22.1519 O   0  0  0  0  0  0
   -3.7504  -12.5676  -22.8567 N   0  3  0  0  0  0
   -4.0894  -13.3734  -23.7162 O   0  5  0  0  0  0
   -3.5756  -11.3720  -23.0692 O   0  0  0  0  0  0
   -5.5563   -9.8173  -16.9211 C   0  0  0  0  0  0
   -6.2804   -8.6853  -17.1984 N   0  0  0  0  0  0
   -5.6541  -10.3263  -15.8230 O   0  0  0  0  0  0
   -7.3995   -8.2363  -16.3418 C   0  0  0  0  0  0
   -8.7989   -8.2766  -16.9744 C   0  0  0  0  0  0
   -5.8635   -7.7233  -18.2094 C   0  0  0  0  0  0
   -6.7065   -6.4587  -18.5250 C   0  0  0  0  0  0
   -4.6394  -11.3464  -20.6754 H   0  0  0  0  0  0
   -3.2618  -14.2214  -17.7693 H   0  0  0  0  0  0
   -5.3238  -13.7183  -17.2284 H   0  0  0  0  0  0
   -6.0399  -12.3903  -16.5177 H   0  0  0  0  0  0
   -1.5503  -16.1162  -20.1220 H   0  0  0  0  0  0
   -2.4437  -15.9980  -21.9565 H   0  0  0  0  0  0
   -7.2546   -7.1849  -16.1649 H   0  0  0  0  0  0
   -7.4141   -8.6938  -15.3519 H   0  0  0  0  0  0
   -9.3263   -7.3723  -16.6724 H   0  0  0  0  0  0
   -9.4149   -9.0860  -16.6139 H   0  0  0  0  0  0
   -8.7937   -8.2860  -18.0629 H   0  0  0  0  0  0
   -4.8200   -7.4428  -18.0646 H   0  0  0  0  0  0
   -5.9738   -8.3965  -19.0229 H   0  0  0  0  0  0
   -6.2123   -5.8569  -19.2857 H   0  0  0  0  0  0
   -7.6824   -6.6996  -18.9390 H   0  0  0  0  0  0
   -6.8539   -5.7964  -17.6740 H   0  0  0  0  0  0
  1  2  2  0  0  0
  1  6  1  0  0  0
  1 12  1  0  0  0
  2  3  1  0  0  0
  2 13  1  0  0  0
  3  4  2  0  0  0
  3 14  1  0  0  0
  4  5  1  0  0  0
  4 24  1  0  0  0
  5  6  2  0  0  0
  5  7  1  0  0  0
  6 25  1  0  0  0
  7  8  2  0  0  0
  7  9  1  0  0  0
  8 10  1  0  0  0
  8 17  1  0  0  0
  9 26  1  0  0  0
  9 27  1  0  0  0
 10 11  3  0  0  0
 12 28  1  0  0  0
 13 29  1  0  0  0
 14 15  1  0  0  0
 14 16  2  0  0  0
 17 18  1  0  0  0
 17 19  2  0  0  0
 18 20  1  0  0  0
 18 22  1  0  0  0
 20 21  1  0  0  0
 20 30  1  0  0  0
 20 31  1  0  0  0
 21 32  1  0  0  0
 21 33  1  0  0  0
 21 34  1  0  0  0
 22 23  1  0  0  0
 22 35  1  0  0  0
 22 36  1  0  0  0
 23 37  1  0  0  0
 23 38  1  0  0  0
 23 39  1  0  0  0
M  CHG  2  14   1  15  -1
M  END
> <s_m_entry_id>
150

> <s_m_entry_name>
glide-dock_SP_comt_chembl_pv.149

> <s_m_Source_Path>
/home/csk/Desktop/cluster/DUD-E-result/comt/glide-dock_SP_comt_chembl

> <s_m_Source_File>
glide-dock_SP_comt_chembl_pv.maegz

> <i_m_Source_File_Index>
149

> <chembl_id>
CHEMBL4567049

> <chembl_pref_name>
None

> <i_lp_mmshare_version>
53161

> <i_f3d_flags>
0

> <r_lp_tautomer_probability>
0.499999974950001

> <s_lp_Force_Field>
OPLS_2005

> <r_lp_Energy>
38.636163

> <b_lp_Chiralities_Consistent>
1

> <s_lp_Variant>
CHEMBL2023_lig109 -1

> <s_i_glide_gridfile>
glide-grid_3bwm

> <i_i_glide_lignum>
131

> <i_i_glide_rotatable_bonds>
8

> <r_i_docking_score>
-7.9291393859338

> <r_i_glide_ligand_efficiency>
-0.344745190692774

> <r_i_glide_ligand_efficiency_sa>
-0.980409463249121

> <r_i_glide_ligand_efficiency_ln>
-1.91733780097968

> <r_i_glide_gscore>
-7.9291393859338

> <r_i_glide_lipo>
-1.49417046689443

> <r_i_glide_hbond>
-0.240535014853679

> <r_i_glide_metal>
-2.3

> <r_i_glide_rewards>
-1.10819601435582

> <r_i_glide_evdw>
-24.0471706390381

> <r_i_glide_ecoul>
-12.7651042938232

> <r_i_glide_erotb>
0.545970882032167

> <r_i_glide_esite>
-0.215084595836643

> <r_i_glide_emodel>
-46.088574251563

> <r_i_glide_energy>
-36.8122749328613

> <r_i_glide_einternal>
12.1392307281494

> <i_i_glide_confnum>
11

> <i_i_glide_posenum>
110

> <r_i_glide_eff_state_penalty>
0

> <s_user_duplicate_titles>
CHEMBL2023_lig109 ,CHEMBL2023_lig109 ,CHEMBL2023_lig109 ,CHEMBL2023_lig109 

> <s_m_subgroup_title>
glide-dock_SP_comt_chembl_pv

> <s_m_subgroupid>
glide-dock_SP_comt_chembl_pv

> <b_m_subgroup_collapsed>
1

$$$$
CHEMBL2023_lig112 
                    3D
 Schrodinger Suite 2021-1.
 32 33  0  0  1  0            999 V2000
   -4.2556  -13.4053  -17.0543 C   0  0  0  0  0  0
   -4.0542   -9.3289  -18.4133 N   0  3  0  0  0  0
   -3.6328  -11.7726  -18.7320 C   0  0  0  0  0  0
   -5.2637  -12.6860  -15.0230 O   0  0  0  0  0  0
   -4.1657  -10.7242  -17.9394 C   0  0  0  0  0  0
   -3.0078  -14.2577  -18.9748 C   0  0  0  0  0  0
   -4.7395  -11.0453  -16.6802 C   0  0  0  0  0  0
   -3.2286   -9.0862  -19.2874 O   0  0  0  0  0  0
   -2.5392  -12.5063  -21.9691 N   0  0  0  0  0  0
   -3.6540  -13.1173  -18.2922 C   0  0  0  0  0  0
   -5.2540  -10.1113  -15.8230 O   0  0  0  0  0  0
   -4.7705  -12.3802  -16.2522 C   0  0  0  0  0  0
   -2.5120  -13.3377  -21.1644 C   0  0  0  0  0  0
   -2.4540  -14.3909  -20.2039 C   0  0  0  0  0  0
   -4.7621   -8.4727  -17.8933 O   0  5  0  0  0  0
   -1.7337  -15.6342  -20.5820 C   0  0  0  0  0  0
   -1.5371  -16.5831  -19.6313 N   0  0  0  0  0  0
   -0.8534  -17.6933  -19.9765 C   0  0  0  0  0  0
   -0.3415  -17.8781  -21.2805 C   0  0  0  0  0  0
   -0.5383  -16.9412  -22.2389 N   0  0  0  0  0  0
   -1.2297  -15.8326  -21.8913 C   0  0  0  0  0  0
    0.4403  -19.1098  -21.6418 C   0  0  0  0  0  0
    1.0155  -19.7502  -20.5805 O   0  0  0  0  0  0
    0.5185  -19.5164  -22.8000 O   0  0  0  0  0  0
   -4.2892  -14.4215  -16.6858 H   0  0  0  0  0  0
   -3.1608  -11.5103  -19.6624 H   0  0  0  0  0  0
   -5.6567  -13.5655  -15.0600 H   0  0  0  0  0  0
   -2.9471  -15.1197  -18.3268 H   0  0  0  0  0  0
   -5.4047   -9.2657  -16.2421 H   0  0  0  0  0  0
   -0.7198  -18.4290  -19.1968 H   0  0  0  0  0  0
   -1.3656  -15.0997  -22.6726 H   0  0  0  0  0  0
    1.0589  -19.2200  -19.8001 H   0  0  0  0  0  0
  1 10  2  0  0  0
  1 12  1  0  0  0
  1 25  1  0  0  0
  2  8  2  0  0  0
  2 15  1  0  0  0
  2  5  1  0  0  0
  3 10  1  0  0  0
  3  5  2  0  0  0
  3 26  1  0  0  0
  4 12  1  0  0  0
  4 27  1  0  0  0
  5  7  1  0  0  0
  6 14  2  0  0  0
  6 10  1  0  0  0
  6 28  1  0  0  0
  7 12  2  0  0  0
  7 11  1  0  0  0
  9 13  3  0  0  0
 11 29  1  0  0  0
 13 14  1  0  0  0
 14 16  1  0  0  0
 16 17  2  0  0  0
 16 21  1  0  0  0
 17 18  1  0  0  0
 18 19  2  0  0  0
 18 30  1  0  0  0
 19 20  1  0  0  0
 19 22  1  0  0  0
 20 21  2  0  0  0
 21 31  1  0  0  0
 22 23  1  0  0  0
 22 24  2  0  0  0
 23 32  1  0  0  0
M  CHG  2   2   1  15  -1
M  END
> <s_m_entry_id>
151

> <s_m_entry_name>
glide-dock_SP_comt_chembl_pv.150

> <s_m_Source_Path>
/home/csk/Desktop/cluster/DUD-E-result/comt/glide-dock_SP_comt_chembl

> <s_m_Source_File>
glide-dock_SP_comt_chembl_pv.maegz

> <i_m_Source_File_Index>
150

> <chembl_id>
CHEMBL4563060

> <chembl_pref_name>
None

> <i_lp_mmshare_version>
53161

> <i_f3d_flags>
0

> <r_lp_tautomer_probability>
1

> <s_lp_Force_Field>
OPLS_2005

> <r_lp_Energy>
29.826052

> <b_lp_Chiralities_Consistent>
1

> <s_lp_Variant>
CHEMBL2023_lig112 -1

> <s_i_glide_gridfile>
glide-grid_3bwm

> <i_i_glide_lignum>
134

> <i_i_glide_rotatable_bonds>
7

> <r_i_docking_score>
-7.92880228858227

> <r_i_glide_ligand_efficiency>
-0.330366762024261

> <r_i_glide_ligand_efficiency_sa>
-0.95294264013718

> <r_i_glide_ligand_efficiency_ln>
-1.89772621668734

> <r_i_glide_gscore>
-7.92880228858227

> <r_i_glide_lipo>
-0.713835406120313

> <r_i_glide_hbond>
0

> <r_i_glide_metal>
-2.3

> <r_i_glide_rewards>
-1.17111463636364

> <r_i_glide_evdw>
-26.847692489624

> <r_i_glide_ecoul>
-19.3586254119873

> <r_i_glide_erotb>
0.522897708208578

> <r_i_glide_esite>
-0.0205715180276013

> <r_i_glide_emodel>
-73.3924664276495

> <r_i_glide_energy>
-46.2063179016113

> <r_i_glide_einternal>
6.20021486282349

> <i_i_glide_confnum>
5

> <i_i_glide_posenum>
303

> <r_i_glide_eff_state_penalty>
0

> <s_user_duplicate_titles>
CHEMBL2023_lig112 ,CHEMBL2023_lig112 ,CHEMBL2023_lig112 ,CHEMBL2023_lig112 ,CHEMBL2023_lig112 

> <s_m_subgroup_title>
glide-dock_SP_comt_chembl_pv

> <s_m_subgroupid>
glide-dock_SP_comt_chembl_pv

> <b_m_subgroup_collapsed>
1

$$$$
CHEMBL2023_lig106 
                    3D
 Schrodinger Suite 2021-1.
 30 31  0  0  1  0            999 V2000
   -4.7656  -12.3835  -16.2614 C   0  0  0  0  0  0
   -4.7592  -11.0484  -16.6859 C   0  0  0  0  0  0
   -4.2369  -10.7241  -17.9602 C   0  0  0  0  0  0
   -3.7719  -11.7672  -18.7928 C   0  0  0  0  0  0
   -3.7384  -13.1222  -18.3804 C   0  0  0  0  0  0
   -4.2532  -13.4009  -17.0867 C   0  0  0  0  0  0
   -3.1665  -14.2324  -19.2182 C   0  0  0  0  0  0
   -2.4540  -14.1599  -20.3802 C   0  0  0  0  0  0
   -3.4352  -15.4495  -18.7163 O   0  0  0  0  0  0
   -2.1177  -12.9310  -21.0235 C   0  0  0  0  0  0
   -1.8889  -15.3472  -21.0591 C   0  0  0  0  0  0
   -1.8006  -11.9701  -21.5875 N   0  0  0  0  0  0
   -5.2540  -12.6860  -15.0230 O   0  0  0  0  0  0
   -5.2538  -10.1119  -15.8230 O   0  0  0  0  0  0
   -4.1174   -9.3291  -18.4251 N   0  3  0  0  0  0
   -4.8507   -8.4787  -17.9313 O   0  5  0  0  0  0
   -3.2539   -9.0860  -19.2624 O   0  0  0  0  0  0
   -1.2148  -16.2719  -20.3287 N   0  0  0  0  0  0
   -0.6979  -17.3285  -20.9940 C   0  0  0  0  0  0
   -0.8375  -17.4633  -22.3911 C   0  0  0  0  0  0
   -1.4930  -16.5423  -23.1316 N   0  0  0  0  0  0
   -2.0150  -15.4901  -22.4626 C   0  0  0  0  0  0
   -3.4411  -11.4716  -19.7677 H   0  0  0  0  0  0
   -4.2681  -14.4031  -16.6847 H   0  0  0  0  0  0
   -3.9737  -15.3344  -17.9488 H   0  0  0  0  0  0
   -5.6542  -13.5624  -15.0534 H   0  0  0  0  0  0
   -5.4229   -9.2703  -16.2428 H   0  0  0  0  0  0
   -0.1688  -18.0670  -20.4103 H   0  0  0  0  0  0
   -0.4193  -18.3099  -22.9152 H   0  0  0  0  0  0
   -2.5396  -14.7562  -23.0572 H   0  0  0  0  0  0
  1  2  2  0  0  0
  1  6  1  0  0  0
  1 13  1  0  0  0
  2  3  1  0  0  0
  2 14  1  0  0  0
  3  4  2  0  0  0
  3 15  1  0  0  0
  4  5  1  0  0  0
  4 23  1  0  0  0
  5  6  2  0  0  0
  5  7  1  0  0  0
  6 24  1  0  0  0
  7  8  2  0  0  0
  7  9  1  0  0  0
  8 10  1  0  0  0
  8 11  1  0  0  0
  9 25  1  0  0  0
 10 12  3  0  0  0
 11 18  2  0  0  0
 11 22  1  0  0  0
 13 26  1  0  0  0
 14 27  1  0  0  0
 15 16  1  0  0  0
 15 17  2  0  0  0
 18 19  1  0  0  0
 19 20  2  0  0  0
 19 28  1  0  0  0
 20 21  1  0  0  0
 20 29  1  0  0  0
 21 22  2  0  0  0
 22 30  1  0  0  0
M  CHG  2  15   1  16  -1
M  END
> <s_m_entry_id>
154

> <s_m_entry_name>
glide-dock_SP_comt_chembl_pv.153

> <s_m_Source_Path>
/home/csk/Desktop/cluster/DUD-E-result/comt/glide-dock_SP_comt_chembl

> <s_m_Source_File>
glide-dock_SP_comt_chembl_pv.maegz

> <i_m_Source_File_Index>
153

> <chembl_id>
CHEMBL4529597

> <chembl_pref_name>
None

> <i_lp_mmshare_version>
53161

> <i_f3d_flags>
0

> <r_lp_tautomer_probability>
1

> <s_lp_Force_Field>
OPLS_2005

> <r_lp_Energy>
25.617066

> <b_lp_Chiralities_Consistent>
1

> <s_lp_Variant>
CHEMBL2023_lig106 -1

> <s_i_glide_gridfile>
glide-grid_3bwm

> <i_i_glide_lignum>
128

> <i_i_glide_rotatable_bonds>
6

> <r_i_docking_score>
-7.91943512644858

> <r_i_glide_ligand_efficiency>
-0.359974323929481

> <r_i_glide_ligand_efficiency_sa>
-1.00866221263722

> <r_i_glide_ligand_efficiency_ln>
-1.93579881331897

> <r_i_glide_gscore>
-7.91943512644858

> <r_i_glide_lipo>
-0.601288660294222

> <r_i_glide_hbond>
-0.00518467468142909

> <r_i_glide_metal>
-2.3

> <r_i_glide_rewards>
-1.36209259090909

> <r_i_glide_evdw>
-25.3204154968262

> <r_i_glide_ecoul>
-19.8645114898682

> <r_i_glide_erotb>
0.611691826305652

> <r_i_glide_esite>
-0.0168635285479532

> <r_i_glide_emodel>
-69.7158304423436

> <r_i_glide_energy>
-45.1849269866943

> <r_i_glide_einternal>
10.0403890609741

> <i_i_glide_confnum>
30

> <i_i_glide_posenum>
330

> <r_i_glide_eff_state_penalty>
0

> <s_user_duplicate_titles>
CHEMBL2023_lig106 ,CHEMBL2023_lig106 ,CHEMBL2023_lig106 ,CHEMBL2023_lig106 ,CHEMBL2023_lig106 

> <s_m_subgroup_title>
glide-dock_SP_comt_chembl_pv

> <s_m_subgroupid>
glide-dock_SP_comt_chembl_pv

> <b_m_subgroup_collapsed>
1

$$$$
CHEMBL2023_lig118
                    3D
 Schrodinger Suite 2021-1.
 40 41  0  0  1  0            999 V2000
   -4.7963  -12.3843  -16.2704 C   0  0  0  0  0  0
   -4.7885  -11.0506  -16.6949 C   0  0  0  0  0  0
   -4.2980  -10.7272  -17.9830 C   0  0  0  0  0  0
   -4.3148  -13.3996  -17.1064 C   0  0  0  0  0  0
   -3.8238  -13.1310  -18.4021 C   0  0  0  0  0  0
   -3.8467  -11.7674  -18.8340 C   0  0  0  0  0  0
   -3.2540  -11.6544  -20.4943 S   0  0  0  0  0  0
   -2.9064  -13.3597  -20.5531 C   0  0  0  0  0  0
   -3.2540  -14.0172  -19.3925 C   0  0  0  0  0  0
   -3.0410  -15.6615  -18.9996 Cl  0  0  0  0  0  0
   -2.2687  -13.8614  -21.7764 C   0  0  0  0  0  0
   -2.0540  -15.1954  -21.7192 O   0  0  0  0  0  0
   -1.9576  -13.1309  -22.7197 O   0  0  0  0  0  0
   -5.2540  -12.6860  -15.0230 O   0  0  0  0  0  0
   -5.2540  -10.1072  -15.8230 O   0  0  0  0  0  0
   -4.2019   -9.3245  -18.4130 N   0  3  0  0  0  0
   -5.0979   -8.5543  -18.0855 O   0  0  0  0  0  0
   -3.1941   -8.9906  -19.0230 O   0  5  0  0  0  0
   -1.2585  -15.7662  -22.7198 C   0  0  1  0  0  0
   -0.5613  -16.8726  -22.2246 O   0  0  0  0  0  0
    0.4082  -16.6057  -21.3089 C   0  0  0  0  0  0
    0.9756  -17.8839  -20.6769 C   0  0  0  0  0  0
    0.8071  -15.4860  -20.9797 O   0  0  0  0  0  0
   -0.0979  -18.5816  -19.8230 C   0  0  0  0  0  0
    2.2525  -17.6107  -19.8596 C   0  0  0  0  0  0
   -2.1733  -16.2565  -23.8520 C   0  0  0  0  0  0
   -4.3254  -14.4216  -16.7584 H   0  0  0  0  0  0
   -5.6540  -13.5624  -15.0487 H   0  0  0  0  0  0
   -5.4706   -9.2768  -16.2429 H   0  0  0  0  0  0
   -0.5265  -15.0517  -23.1065 H   0  0  0  0  0  0
    1.2421  -18.5509  -21.4972 H   0  0  0  0  0  0
   -0.9623  -18.8702  -20.4224 H   0  0  0  0  0  0
   -0.4540  -17.9317  -19.0230 H   0  0  0  0  0  0
    0.2955  -19.4879  -19.3621 H   0  0  0  0  0  0
    3.0285  -17.1572  -20.4774 H   0  0  0  0  0  0
    2.0602  -16.9378  -19.0230 H   0  0  0  0  0  0
    2.6603  -18.5355  -19.4510 H   0  0  0  0  0  0
   -2.8892  -16.9836  -23.4659 H   0  0  0  0  0  0
   -2.7176  -15.4190  -24.2888 H   0  0  0  0  0  0
   -1.5753  -16.7281  -24.6321 H   0  0  0  0  0  0
  1 14  1  0  0  0
  1  2  2  0  0  0
  1  4  1  0  0  0
  2 15  1  0  0  0
  2  3  1  0  0  0
  3  6  2  0  0  0
  3 16  1  0  0  0
  4  5  2  0  0  0
  4 27  1  0  0  0
  5  9  1  0  0  0
  5  6  1  0  0  0
  6  7  1  0  0  0
  7  8  1  0  0  0
  8 11  1  0  0  0
  8  9  2  0  0  0
  9 10  1  0  0  0
 11 13  2  0  0  0
 11 12  1  0  0  0
 12 19  1  0  0  0
 14 28  1  0  0  0
 15 29  1  0  0  0
 16 17  2  0  0  0
 16 18  1  0  0  0
 19 20  1  0  0  0
 19 26  1  0  0  0
 19 30  1  0  0  0
 20 21  1  0  0  0
 21 22  1  0  0  0
 21 23  2  0  0  0
 22 24  1  0  0  0
 22 25  1  0  0  0
 22 31  1  0  0  0
 24 32  1  0  0  0
 24 33  1  0  0  0
 24 34  1  0  0  0
 25 35  1  0  0  0
 25 36  1  0  0  0
 25 37  1  0  0  0
 26 38  1  0  0  0
 26 39  1  0  0  0
 26 40  1  0  0  0
M  CHG  2  16   1  18  -1
M  END
> <s_m_entry_id>
155

> <s_m_entry_name>
glide-dock_SP_comt_chembl_pv.154

> <s_m_Source_Path>
/home/csk/Desktop/cluster/DUD-E-result/comt/glide-dock_SP_comt_chembl

> <s_m_Source_File>
glide-dock_SP_comt_chembl_pv.maegz

> <i_m_Source_File_Index>
154

> <chembl_id>
CHEMBL1089538

> <chembl_pref_name>
None

> <i_lp_mmshare_version>
53161

> <i_f3d_flags>
0

> <r_lp_tautomer_probability>
1

> <s_lp_Force_Field>
OPLS_2005

> <r_lp_Energy>
14.756732

> <b_lp_Chiralities_Consistent>
1

> <s_lp_Variant>
CHEMBL2023_lig118-2

> <s_i_glide_gridfile>
glide-grid_3bwm

> <i_i_glide_lignum>
143

> <i_i_glide_rotatable_bonds>
9

> <r_i_docking_score>
-7.91738915043098

> <r_i_glide_ligand_efficiency>
-0.304514967324268

> <r_i_glide_ligand_efficiency_sa>
-0.902124392489608

> <r_i_glide_ligand_efficiency_ln>
-1.85937286290596

> <r_i_glide_gscore>
-7.91738915043098

> <r_i_glide_lipo>
-0.981576512352793

> <r_i_glide_hbond>
0

> <r_i_glide_metal>
-2.3

> <r_i_glide_rewards>
-0.651899289184912

> <r_i_glide_evdw>
-30.4562816619873

> <r_i_glide_ecoul>
-20.3604393005371

> <r_i_glide_erotb>
0.602180388803255

> <r_i_glide_esite>
-0.0092137595165955

> <r_i_glide_emodel>
-81.6215397954337

> <r_i_glide_energy>
-50.8167209625244

> <r_i_glide_einternal>
3.55639481544495

> <i_i_glide_confnum>
5

> <i_i_glide_posenum>
247

> <r_i_glide_eff_state_penalty>
0

> <s_user_duplicate_titles>
CHEMBL2023_lig118,CHEMBL2023_lig118,CHEMBL2023_lig118,CHEMBL2023_lig118,CHEMBL2023_lig118

> <s_m_subgroup_title>
glide-dock_SP_comt_chembl_pv

> <s_m_subgroupid>
glide-dock_SP_comt_chembl_pv

> <b_m_subgroup_collapsed>
1

$$$$
CHEMBL2023_lig118
                    3D
 Schrodinger Suite 2021-1.
 40 41  0  0  1  0            999 V2000
   -4.7928  -12.4061  -16.2665 C   0  0  0  0  0  0
   -4.7732  -11.0760  -16.6993 C   0  0  0  0  0  0
   -4.2621  -10.7743  -17.9886 C   0  0  0  0  0  0
   -4.3237  -13.4396  -17.0833 C   0  0  0  0  0  0
   -3.8155  -13.1948  -18.3732 C   0  0  0  0  0  0
   -3.8061  -11.8352  -18.8197 C   0  0  0  0  0  0
   -3.1619  -11.7644  -20.4693 S   0  0  0  0  0  0
   -2.8551  -13.4770  -20.4959 C   0  0  0  0  0  0
   -3.2530  -14.1083  -19.3407 C   0  0  0  0  0  0
   -3.0766  -15.7485  -18.9255 Cl  0  0  0  0  0  0
   -2.2079  -14.0298  -21.6890 C   0  0  0  0  0  0
   -2.4539  -15.3635  -21.8144 O   0  0  0  0  0  0
   -1.5214  -13.3419  -22.4448 O   0  0  0  0  0  0
   -5.2555  -12.6862  -15.0227 O   0  0  0  0  0  0
   -5.2539  -10.1331  -15.8279 O   0  0  0  0  0  0
   -4.1489   -9.3785  -18.4411 N   0  3  0  0  0  0
   -4.9913   -8.5717  -18.0600 O   0  0  0  0  0  0
   -3.1804   -9.0856  -19.1314 O   0  5  0  0  0  0
   -1.8122  -16.1184  -22.8172 C   0  0  2  0  0  0
   -0.4145  -16.1185  -22.7331 O   0  0  0  0  0  0
    0.1207  -16.7273  -21.6386 C   0  0  0  0  0  0
    1.6522  -16.6183  -21.6039 C   0  0  0  0  0  0
   -0.5071  -17.3093  -20.7511 O   0  0  0  0  0  0
    2.2676  -17.4280  -20.4477 C   0  0  0  0  0  0
    2.0920  -15.1481  -21.5329 C   0  0  0  0  0  0
   -2.2237  -15.6655  -24.2328 C   0  0  0  0  0  0
   -4.3573  -14.4571  -16.7228 H   0  0  0  0  0  0
   -5.6608  -13.5614  -15.0376 H   0  0  0  0  0  0
   -5.4508   -9.2988  -16.2488 H   0  0  0  0  0  0
   -2.1559  -17.1445  -22.6708 H   0  0  0  0  0  0
    2.0173  -17.0358  -22.5416 H   0  0  0  0  0  0
    1.9858  -18.4799  -20.5030 H   0  0  0  0  0  0
    1.9504  -17.0503  -19.4744 H   0  0  0  0  0  0
    3.3567  -17.3829  -20.4752 H   0  0  0  0  0  0
    1.7166  -14.5667  -22.3759 H   0  0  0  0  0  0
    1.7210  -14.6867  -20.6200 H   0  0  0  0  0  0
    3.1795  -15.0614  -21.5316 H   0  0  0  0  0  0
   -1.8132  -14.6911  -24.4866 H   0  0  0  0  0  0
   -1.8536  -16.3860  -24.9599 H   0  0  0  0  0  0
   -3.3090  -15.6282  -24.3046 H   0  0  0  0  0  0
  1 14  1  0  0  0
  1  2  2  0  0  0
  1  4  1  0  0  0
  2 15  1  0  0  0
  2  3  1  0  0  0
  3  6  2  0  0  0
  3 16  1  0  0  0
  4  5  2  0  0  0
  4 27  1  0  0  0
  5  9  1  0  0  0
  5  6  1  0  0  0
  6  7  1  0  0  0
  7  8  1  0  0  0
  8 11  1  0  0  0
  8  9  2  0  0  0
  9 10  1  0  0  0
 11 13  2  0  0  0
 11 12  1  0  0  0
 12 19  1  0  0  0
 14 28  1  0  0  0
 15 29  1  0  0  0
 16 17  2  0  0  0
 16 18  1  0  0  0
 19 20  1  0  0  0
 19 26  1  0  0  0
 19 30  1  0  0  0
 20 21  1  0  0  0
 21 22  1  0  0  0
 21 23  2  0  0  0
 22 24  1  0  0  0
 22 25  1  0  0  0
 22 31  1  0  0  0
 24 32  1  0  0  0
 24 33  1  0  0  0
 24 34  1  0  0  0
 25 35  1  0  0  0
 25 36  1  0  0  0
 25 37  1  0  0  0
 26 38  1  0  0  0
 26 39  1  0  0  0
 26 40  1  0  0  0
M  CHG  2  16   1  18  -1
M  END
> <s_m_entry_id>
157

> <s_m_entry_name>
glide-dock_SP_comt_chembl_pv.156

> <s_m_Source_Path>
/home/csk/Desktop/cluster/DUD-E-result/comt/glide-dock_SP_comt_chembl

> <s_m_Source_File>
glide-dock_SP_comt_chembl_pv.maegz

> <i_m_Source_File_Index>
156

> <chembl_id>
CHEMBL1089538

> <chembl_pref_name>
None

> <i_lp_mmshare_version>
53161

> <i_f3d_flags>
0

> <r_lp_tautomer_probability>
1

> <s_lp_Force_Field>
OPLS_2005

> <r_lp_Energy>
15.18115

> <b_lp_Chiralities_Consistent>
1

> <s_lp_Variant>
CHEMBL2023_lig118-1

> <s_i_glide_gridfile>
glide-grid_3bwm

> <i_i_glide_lignum>
142

> <i_i_glide_rotatable_bonds>
9

> <r_i_docking_score>
-7.9101089348441

> <r_i_glide_ligand_efficiency>
-0.304234959032465

> <r_i_glide_ligand_efficiency_sa>
-0.90129486902692

> <r_i_glide_ligand_efficiency_ln>
-1.85766312816372

> <r_i_glide_gscore>
-7.9101089348441

> <r_i_glide_lipo>
-0.927711805668201

> <r_i_glide_hbond>
-0.0567838046314396

> <r_i_glide_metal>
-2.3

> <r_i_glide_rewards>
-0.655556391408264

> <r_i_glide_evdw>
-28.9725570678711

> <r_i_glide_ecoul>
-20.7091255187988

> <r_i_glide_erotb>
0.602180388803255

> <r_i_glide_esite>
-0.0172406407260664

> <r_i_glide_emodel>
-80.7952047845886

> <r_i_glide_energy>
-49.6816825866699

> <r_i_glide_einternal>
3.34889125823975

> <i_i_glide_confnum>
28

> <i_i_glide_posenum>
314

> <r_i_glide_eff_state_penalty>
0

> <s_user_duplicate_titles>
CHEMBL2023_lig118,CHEMBL2023_lig118,CHEMBL2023_lig118,CHEMBL2023_lig118,CHEMBL2023_lig118

> <s_m_subgroup_title>
glide-dock_SP_comt_chembl_pv

> <s_m_subgroupid>
glide-dock_SP_comt_chembl_pv

> <b_m_subgroup_collapsed>
1

$$$$
CHEMBL2023_lig117
                    3D
 Schrodinger Suite 2021-1.
 37 38  0  0  1  0            999 V2000
   -4.8063  -12.3931  -16.2707 C   0  0  0  0  0  0
   -4.7915  -11.0618  -16.6979 C   0  0  0  0  0  0
   -4.2938  -10.7502  -17.9871 C   0  0  0  0  0  0
   -4.3357  -13.4181  -17.0977 C   0  0  0  0  0  0
   -3.8314  -13.1604  -18.3881 C   0  0  0  0  0  0
   -3.8379  -11.7991  -18.8282 C   0  0  0  0  0  0
   -3.2132  -11.7063  -20.4793 S   0  0  0  0  0  0
   -2.8540  -13.4119  -20.5066 C   0  0  0  0  0  0
   -3.2540  -14.0606  -19.3589 C   0  0  0  0  0  0
   -3.0718  -15.7041  -18.9463 Cl  0  0  0  0  0  0
   -2.1245  -13.9215  -21.6753 C   0  0  0  0  0  0
   -1.8651  -15.2403  -21.5683 O   0  0  0  0  0  0
   -1.7654  -13.2042  -22.6114 O   0  0  0  0  0  0
   -5.2567  -12.6860  -15.0229 O   0  0  0  0  0  0
   -5.2540  -10.1162  -15.8230 O   0  0  0  0  0  0
   -4.1892   -9.3510  -18.4236 N   0  3  0  0  0  0
   -5.0858   -8.5769  -18.1073 O   0  0  0  0  0  0
   -3.1742   -9.0236  -19.0248 O   0  5  0  0  0  0
   -0.8899  -15.7567  -22.4225 C   0  0  0  0  0  0
   -0.3920  -16.9735  -21.9457 O   0  0  0  0  0  0
    0.3427  -16.9096  -20.8026 C   0  0  0  0  0  0
    0.6919  -18.2882  -20.2427 C   0  0  0  0  0  0
    0.7077  -15.8860  -20.2223 O   0  0  0  0  0  0
   -0.4537  -18.9144  -19.4231 C   0  0  0  0  0  0
   -1.5995  -19.4720  -20.2760 C   0  0  0  0  0  0
   -4.3559  -14.4377  -16.7426 H   0  0  0  0  0  0
   -5.6543  -13.5634  -15.0422 H   0  0  0  0  0  0
   -5.4701   -9.2858  -16.2429 H   0  0  0  0  0  0
   -0.0589  -15.0574  -22.5484 H   0  0  0  0  0  0
   -1.3404  -15.9309  -23.4002 H   0  0  0  0  0  0
    1.5674  -18.1726  -19.6031 H   0  0  0  0  0  0
    0.9866  -18.9500  -21.0573 H   0  0  0  0  0  0
   -0.8539  -18.1808  -18.7214 H   0  0  0  0  0  0
   -0.0481  -19.7200  -18.8106 H   0  0  0  0  0  0
   -2.3794  -19.9007  -19.6461 H   0  0  0  0  0  0
   -1.2452  -20.2535  -20.9487 H   0  0  0  0  0  0
   -2.0576  -18.6920  -20.8824 H   0  0  0  0  0  0
  1 14  1  0  0  0
  1  2  2  0  0  0
  1  4  1  0  0  0
  2 15  1  0  0  0
  2  3  1  0  0  0
  3  6  2  0  0  0
  3 16  1  0  0  0
  4  5  2  0  0  0
  4 26  1  0  0  0
  5  9  1  0  0  0
  5  6  1  0  0  0
  6  7  1  0  0  0
  7  8  1  0  0  0
  8 11  1  0  0  0
  8  9  2  0  0  0
  9 10  1  0  0  0
 11 12  1  0  0  0
 11 13  2  0  0  0
 12 19  1  0  0  0
 14 27  1  0  0  0
 15 28  1  0  0  0
 16 17  2  0  0  0
 16 18  1  0  0  0
 19 20  1  0  0  0
 19 29  1  0  0  0
 19 30  1  0  0  0
 20 21  1  0  0  0
 21 22  1  0  0  0
 21 23  2  0  0  0
 22 24  1  0  0  0
 22 31  1  0  0  0
 22 32  1  0  0  0
 24 25  1  0  0  0
 24 33  1  0  0  0
 24 34  1  0  0  0
 25 35  1  0  0  0
 25 36  1  0  0  0
 25 37  1  0  0  0
M  CHG  2  16   1  18  -1
M  END
> <s_m_entry_id>
160

> <s_m_entry_name>
glide-dock_SP_comt_chembl_pv.159

> <s_m_Source_Path>
/home/csk/Desktop/cluster/DUD-E-result/comt/glide-dock_SP_comt_chembl

> <s_m_Source_File>
glide-dock_SP_comt_chembl_pv.maegz

> <i_m_Source_File_Index>
159

> <chembl_id>
CHEMBL1089539

> <chembl_pref_name>
None

> <i_lp_mmshare_version>
53161

> <i_f3d_flags>
0

> <r_lp_tautomer_probability>
1

> <s_lp_Force_Field>
OPLS_2005

> <r_lp_Energy>
14.045971

> <b_lp_Chiralities_Consistent>
1

> <s_lp_Variant>
CHEMBL2023_lig117-1

> <s_i_glide_gridfile>
glide-grid_3bwm

> <i_i_glide_lignum>
141

> <i_i_glide_rotatable_bonds>
10

> <r_i_docking_score>
-7.89610072594496

> <r_i_glide_ligand_efficiency>
-0.315844029037798

> <r_i_glide_ligand_efficiency_sa>
-0.923533542424229

> <r_i_glide_ligand_efficiency_ln>
-1.87161249909308

> <r_i_glide_gscore>
-7.89610072594496

> <r_i_glide_lipo>
-0.991695897245456

> <r_i_glide_hbond>
0

> <r_i_glide_metal>
-2.3

> <r_i_glide_rewards>
-0.73416410710305

> <r_i_glide_evdw>
-30.9522247314453

> <r_i_glide_ecoul>
-20.5416946411133

> <r_i_glide_erotb>
0.770061463238772

> <r_i_glide_esite>
-0.011436752095971

> <r_i_glide_emodel>
-82.2733580852843

> <r_i_glide_energy>
-51.4939193725586

> <r_i_glide_einternal>
3.87056231498718

> <i_i_glide_confnum>
53

> <i_i_glide_posenum>
106

> <r_i_glide_eff_state_penalty>
0

> <s_user_duplicate_titles>
CHEMBL2023_lig117,CHEMBL2023_lig117,CHEMBL2023_lig117,CHEMBL2023_lig117,CHEMBL2023_lig117,621468,621468,621468,621468,621468

> <s_m_subgroup_title>
glide-dock_SP_comt_chembl_pv

> <s_m_subgroupid>
glide-dock_SP_comt_chembl_pv

> <b_m_subgroup_collapsed>
1

$$$$
CHEMBL2023_lig104 
                    3D
 Schrodinger Suite 2021-1.
 35 37  0  0  1  0            999 V2000
   -4.8511  -12.4390  -16.0641 C   0  0  0  0  0  0
   -4.3435  -13.4836  -16.8662 C   0  0  0  0  0  0
   -4.5765  -10.9368  -17.9571 C   0  0  0  0  0  0
   -4.9073  -11.1419  -16.6085 C   0  0  0  0  0  0
   -4.1183  -12.0289  -18.7203 C   0  0  0  0  0  0
   -3.9609  -13.2558  -18.1480 N   0  3  0  0  0  0
   -3.3546  -14.3778  -18.9139 C   0  0  0  0  0  0
   -2.9713  -14.0238  -20.3707 C   0  0  0  0  0  0
   -3.9067  -13.0718  -20.9560 N   0  0  1  0  0  0
   -3.7922  -11.8394  -20.1848 C   0  0  0  0  0  0
   -5.2960  -10.1016  -15.8251 O   0  0  0  0  0  0
   -5.2540  -12.6860  -14.7770 O   0  5  0  0  0  0
   -3.5436  -12.8201  -22.3539 C   0  0  0  0  0  0
   -4.5459  -11.9438  -23.1042 C   0  0  0  0  0  0
   -4.3056  -10.5593  -23.3034 C   0  0  0  0  0  0
   -5.2538   -9.7683  -23.9813 C   0  0  0  0  0  0
   -6.4456  -10.3386  -24.4607 C   0  0  0  0  0  0
   -6.6861  -11.7111  -24.2751 C   0  0  0  0  0  0
   -5.7422  -12.5137  -23.6059 C   0  0  0  0  0  0
   -2.8678   -9.7917  -22.7236 Cl  0  0  0  0  0  0
   -6.0749  -14.1996  -23.4258 Cl  0  0  0  0  0  0
   -4.2460  -14.4976  -16.5071 H   0  0  0  0  0  0
   -4.6721   -9.9592  -18.4078 H   0  0  0  0  0  0
   -4.0540  -15.2077  -18.8894 H   0  0  0  0  0  0
   -2.4767  -14.7093  -18.3620 H   0  0  0  0  0  0
   -2.9366  -14.9357  -20.9689 H   0  0  0  0  0  0
   -1.9725  -13.5963  -20.4090 H   0  0  0  0  0  0
   -2.7879  -11.4208  -20.2695 H   0  0  0  0  0  0
   -4.4848  -11.0959  -20.5806 H   0  0  0  0  0  0
   -5.5495   -9.3191  -16.3005 H   0  0  0  0  0  0
   -3.4764  -13.7739  -22.8792 H   0  0  0  0  0  0
   -2.5424  -12.3937  -22.4146 H   0  0  0  0  0  0
   -5.0688   -8.7132  -24.1276 H   0  0  0  0  0  0
   -7.1724   -9.7263  -24.9745 H   0  0  0  0  0  0
   -7.5978  -12.1496  -24.6521 H   0  0  0  0  0  0
  1  2  2  0  0  0
  1 12  1  0  0  0
  1  4  1  0  0  0
  2  6  1  0  0  0
  2 22  1  0  0  0
  3 23  1  0  0  0
  3  5  1  0  0  0
  3  4  2  0  0  0
  4 11  1  0  0  0
  5 10  1  0  0  0
  5  6  2  0  0  0
  6  7  1  0  0  0
  7  8  1  0  0  0
  7 24  1  0  0  0
  7 25  1  0  0  0
  8  9  1  0  0  0
  8 26  1  0  0  0
  8 27  1  0  0  0
  9 10  1  0  0  0
  9 13  1  0  0  0
 10 28  1  0  0  0
 10 29  1  0  0  0
 11 30  1  0  0  0
 13 14  1  0  0  0
 13 31  1  0  0  0
 13 32  1  0  0  0
 14 15  2  0  0  0
 14 19  1  0  0  0
 15 16  1  0  0  0
 15 20  1  0  0  0
 16 17  2  0  0  0
 16 33  1  0  0  0
 17 18  1  0  0  0
 17 34  1  0  0  0
 18 19  2  0  0  0
 18 35  1  0  0  0
 19 21  1  0  0  0
M  CHG  2   6   1  12  -1
M  END
> <s_m_entry_id>
161

> <s_m_entry_name>
glide-dock_SP_comt_chembl_pv.160

> <s_m_Source_Path>
/home/csk/Desktop/cluster/DUD-E-result/comt/glide-dock_SP_comt_chembl

> <s_m_Source_File>
glide-dock_SP_comt_chembl_pv.maegz

> <i_m_Source_File_Index>
160

> <chembl_id>
CHEMBL4470211

> <chembl_pref_name>
None

> <i_lp_mmshare_version>
53161

> <i_f3d_flags>
0

> <r_lp_tautomer_probability>
0.995892618013405

> <s_lp_Force_Field>
OPLS_2005

> <r_lp_Energy>
16.878251

> <b_lp_Chiralities_Consistent>
1

> <s_lp_Variant>
CHEMBL2023_lig104 -1

> <s_i_glide_gridfile>
glide-grid_3bwm

> <i_i_glide_lignum>
126

> <i_i_glide_rotatable_bonds>
3

> <r_i_docking_score>
-7.89050769967985

> <r_i_glide_ligand_efficiency>
-0.375738461889517

> <r_i_glide_ligand_efficiency_sa>
-1.03663392545123

> <r_i_glide_ligand_efficiency_ln>
-1.95091208447375

> <r_i_glide_gscore>
-7.89050769967985

> <r_i_glide_lipo>
-0.724954397645726

> <r_i_glide_hbond>
-0.122871103535682

> <r_i_glide_metal>
-2.3

> <r_i_glide_rewards>
-1.94189140909091

> <r_i_glide_evdw>
-18.6961421966553

> <r_i_glide_ecoul>
-14.8024702072144

> <r_i_glide_erotb>
0.354386851507381

> <r_i_glide_esite>
0

> <r_i_glide_emodel>
-71.0370329921221

> <r_i_glide_energy>
-33.4986124038696

> <r_i_glide_einternal>
1.23033046722412

> <i_i_glide_confnum>
1

> <i_i_glide_posenum>
105

> <r_i_glide_eff_state_penalty>
0

> <s_user_duplicate_titles>
CHEMBL2023_lig104 ,CHEMBL2023_lig104 ,CHEMBL2023_lig104 ,CHEMBL2023_lig104 

> <s_m_subgroup_title>
glide-dock_SP_comt_chembl_pv

> <s_m_subgroupid>
glide-dock_SP_comt_chembl_pv

> <b_m_subgroup_collapsed>
1

$$$$
CHEMBL2023_lig116
                    3D
 Schrodinger Suite 2021-1.
 40 41  0  0  1  0            999 V2000
   -4.8021  -12.3795  -16.2720 C   0  0  0  0  0  0
   -4.7999  -11.0454  -16.6970 C   0  0  0  0  0  0
   -4.3242  -10.7196  -17.9892 C   0  0  0  0  0  0
   -4.3177  -13.3914  -17.1102 C   0  0  0  0  0  0
   -3.8348  -13.1184  -18.4078 C   0  0  0  0  0  0
   -3.8774  -11.7565  -18.8446 C   0  0  0  0  0  0
   -3.3128  -11.6398  -20.5159 S   0  0  0  0  0  0
   -2.9240  -13.3332  -20.5579 C   0  0  0  0  0  0
   -3.2540  -13.9957  -19.3976 C   0  0  0  0  0  0
   -3.0195  -15.6411  -19.0230 Cl  0  0  0  0  0  0
   -2.2567  -13.8328  -21.7586 C   0  0  0  0  0  0
   -1.4396  -14.8629  -21.4528 O   0  0  0  0  0  0
   -2.4159  -13.3401  -22.8768 O   0  0  0  0  0  0
   -5.2540  -12.6860  -15.0230 O   0  0  0  0  0  0
   -5.2540  -10.1001  -15.8230 O   0  0  0  0  0  0
   -4.2326   -9.3169  -18.4178 N   0  3  0  0  0  0
   -5.1323   -8.5502  -18.0923 O   0  0  0  0  0  0
   -3.2229   -8.9802  -19.0230 O   0  5  0  0  0  0
   -0.6699  -15.4399  -22.4710 C   0  0  2  0  0  0
   -0.1925  -16.7066  -22.0855 O   0  0  0  0  0  0
    0.5535  -16.8060  -20.9423 C   0  0  0  0  0  0
    0.8369  -18.2561  -20.5661 C   0  0  0  0  0  0
    0.9451  -15.8860  -20.2230 O   0  0  0  0  0  0
   -0.3866  -18.9152  -19.9093 C   0  0  0  0  0  0
   -0.1094  -20.3609  -19.4881 C   0  0  0  0  0  0
    0.4918  -14.5036  -22.9037 C   0  0  0  0  0  0
   -4.3166  -14.4134  -16.7618 H   0  0  0  0  0  0
   -5.6540  -13.5624  -15.0498 H   0  0  0  0  0  0
   -5.4752   -9.2704  -16.2418 H   0  0  0  0  0  0
   -1.3231  -15.6333  -23.3239 H   0  0  0  0  0  0
    1.6872  -18.2808  -19.8838 H   0  0  0  0  0  0
    1.1297  -18.8050  -21.4614 H   0  0  0  0  0  0
   -1.2341  -18.8972  -20.5963 H   0  0  0  0  0  0
   -0.6896  -18.3403  -19.0324 H   0  0  0  0  0  0
   -0.9903  -20.8029  -19.0230 H   0  0  0  0  0  0
    0.7103  -20.4093  -18.7707 H   0  0  0  0  0  0
    0.1587  -20.9772  -20.3466 H   0  0  0  0  0  0
    1.0843  -14.1763  -22.0500 H   0  0  0  0  0  0
    1.1414  -15.0270  -23.6056 H   0  0  0  0  0  0
    0.1049  -13.6173  -23.4053 H   0  0  0  0  0  0
  1 14  1  0  0  0
  1  2  2  0  0  0
  1  4  1  0  0  0
  2 15  1  0  0  0
  2  3  1  0  0  0
  3  6  2  0  0  0
  3 16  1  0  0  0
  4  5  2  0  0  0
  4 27  1  0  0  0
  5  9  1  0  0  0
  5  6  1  0  0  0
  6  7  1  0  0  0
  7  8  1  0  0  0
  8 11  1  0  0  0
  8  9  2  0  0  0
  9 10  1  0  0  0
 11 13  2  0  0  0
 11 12  1  0  0  0
 12 19  1  0  0  0
 14 28  1  0  0  0
 15 29  1  0  0  0
 16 17  2  0  0  0
 16 18  1  0  0  0
 19 20  1  0  0  0
 19 26  1  0  0  0
 19 30  1  0  0  0
 20 21  1  0  0  0
 21 22  1  0  0  0
 21 23  2  0  0  0
 22 24  1  0  0  0
 22 31  1  0  0  0
 22 32  1  0  0  0
 24 25  1  0  0  0
 24 33  1  0  0  0
 24 34  1  0  0  0
 25 35  1  0  0  0
 25 36  1  0  0  0
 25 37  1  0  0  0
 26 38  1  0  0  0
 26 39  1  0  0  0
 26 40  1  0  0  0
M  CHG  2  16   1  18  -1
M  END
> <s_m_entry_id>
163

> <s_m_entry_name>
glide-dock_SP_comt_chembl_pv.162

> <s_m_Source_Path>
/home/csk/Desktop/cluster/DUD-E-result/comt/glide-dock_SP_comt_chembl

> <s_m_Source_File>
glide-dock_SP_comt_chembl_pv.maegz

> <i_m_Source_File_Index>
162

> <chembl_id>
CHEMBL1091981

> <chembl_pref_name>
None

> <i_lp_mmshare_version>
53161

> <i_f3d_flags>
0

> <r_lp_tautomer_probability>
1

> <s_lp_Force_Field>
OPLS_2005

> <r_lp_Energy>
14.373015

> <b_lp_Chiralities_Consistent>
1

> <s_lp_Variant>
CHEMBL2023_lig116-1

> <s_i_glide_gridfile>
glide-grid_3bwm

> <i_i_glide_lignum>
139

> <i_i_glide_rotatable_bonds>
10

> <r_i_docking_score>
-7.88893725410953

> <r_i_glide_ligand_efficiency>
-0.303420663619597

> <r_i_glide_ligand_efficiency_sa>
-0.898882522070397

> <r_i_glide_ligand_efficiency_ln>
-1.85269102841316

> <r_i_glide_gscore>
-7.88893725410953

> <r_i_glide_lipo>
-1.05357651272713

> <r_i_glide_hbond>
0

> <r_i_glide_metal>
-2.3

> <r_i_glide_rewards>
-0.655712025664021

> <r_i_glide_evdw>
-31.3304309844971

> <r_i_glide_ecoul>
-20.1940994262695

> <r_i_glide_erotb>
0.722616466563905

> <r_i_glide_esite>
-0.00662871911700659

> <r_i_glide_emodel>
-81.1559220514226

> <r_i_glide_energy>
-51.5245304107666

> <r_i_glide_einternal>
5.97528266906738

> <i_i_glide_confnum>
53

> <i_i_glide_posenum>
260

> <r_i_glide_eff_state_penalty>
0

> <s_user_duplicate_titles>
CHEMBL2023_lig116,CHEMBL2023_lig116,CHEMBL2023_lig116,CHEMBL2023_lig116,CHEMBL2023_lig116

> <s_m_subgroup_title>
glide-dock_SP_comt_chembl_pv

> <s_m_subgroupid>
glide-dock_SP_comt_chembl_pv

> <b_m_subgroup_collapsed>
1

$$$$
CHEMBL2023_lig95 
                    3D
 Schrodinger Suite 2021-1.
 41 43  0  0  1  0            999 V2000
   -4.8362  -12.4355  -16.0909 C   0  0  0  0  0  0
   -4.3384  -13.4860  -16.8854 C   0  0  0  0  0  0
   -4.4711  -10.9276  -17.9610 C   0  0  0  0  0  0
   -4.8555  -11.1338  -16.6221 C   0  0  0  0  0  0
   -4.0377  -12.0322  -18.7278 C   0  0  0  0  0  0
   -3.9312  -13.2660  -18.1581 N   0  3  0  0  0  0
   -3.3574  -14.4113  -18.9137 C   0  0  0  0  0  0
   -3.0087  -14.0984  -20.3847 C   0  0  0  0  0  0
   -3.9136  -13.1059  -20.9478 N   0  0  1  0  0  0
   -3.7059  -11.8693  -20.1985 C   0  0  0  0  0  0
   -5.2540  -10.1030  -15.8230 O   0  0  0  0  0  0
   -5.2540  -12.6860  -14.8137 O   0  5  0  0  0  0
   -3.5976  -12.9159  -22.3637 C   0  0  0  0  0  0
   -4.5254  -11.9351  -23.0739 C   0  0  0  0  0  0
   -4.0578  -10.7051  -23.6124 C   0  0  0  0  0  0
   -4.9804   -9.8296  -24.2465 C   0  0  0  0  0  0
   -6.3409  -10.1890  -24.3419 C   0  0  0  0  0  0
   -6.7950  -11.4100  -23.8169 C   0  0  0  0  0  0
   -5.8897  -12.2768  -23.1821 C   0  0  0  0  0  0
   -2.5795  -10.3415  -23.5064 C   0  0  0  0  0  0
   -4.5455   -8.4989  -24.8373 C   0  0  0  0  0  0
   -4.2735  -14.5035  -16.5268 H   0  0  0  0  0  0
   -4.5327   -9.9455  -18.4079 H   0  0  0  0  0  0
   -4.0540  -15.2410  -18.8482 H   0  0  0  0  0  0
   -2.4627  -14.7342  -18.3836 H   0  0  0  0  0  0
   -3.0454  -15.0187  -20.9690 H   0  0  0  0  0  0
   -1.9877  -13.7291  -20.4598 H   0  0  0  0  0  0
   -2.6759  -11.5226  -20.2971 H   0  0  0  0  0  0
   -4.3476  -11.0846  -20.6021 H   0  0  0  0  0  0
   -5.5070   -9.3155  -16.2914 H   0  0  0  0  0  0
   -3.7021  -13.8748  -22.8737 H   0  0  0  0  0  0
   -2.5509  -12.6366  -22.4748 H   0  0  0  0  0  0
   -7.0474   -9.5272  -24.8215 H   0  0  0  0  0  0
   -7.8391  -11.6749  -23.8917 H   0  0  0  0  0  0
   -6.2452  -13.2093  -22.7690 H   0  0  0  0  0  0
   -2.3283   -9.3758  -23.9394 H   0  0  0  0  0  0
   -2.2715  -10.3121  -22.4616 H   0  0  0  0  0  0
   -1.9735  -11.0850  -24.0246 H   0  0  0  0  0  0
   -5.3961   -7.9322  -25.2170 H   0  0  0  0  0  0
   -4.0540   -7.8860  -24.0818 H   0  0  0  0  0  0
   -3.8535   -8.6571  -25.6647 H   0  0  0  0  0  0
  1  2  2  0  0  0
  1 12  1  0  0  0
  1  4  1  0  0  0
  2  6  1  0  0  0
  2 22  1  0  0  0
  3 23  1  0  0  0
  3  5  1  0  0  0
  3  4  2  0  0  0
  4 11  1  0  0  0
  5 10  1  0  0  0
  5  6  2  0  0  0
  6  7  1  0  0  0
  7  8  1  0  0  0
  7 24  1  0  0  0
  7 25  1  0  0  0
  8  9  1  0  0  0
  8 26  1  0  0  0
  8 27  1  0  0  0
  9 10  1  0  0  0
  9 13  1  0  0  0
 10 28  1  0  0  0
 10 29  1  0  0  0
 11 30  1  0  0  0
 13 14  1  0  0  0
 13 31  1  0  0  0
 13 32  1  0  0  0
 14 15  2  0  0  0
 14 19  1  0  0  0
 15 16  1  0  0  0
 15 20  1  0  0  0
 16 17  2  0  0  0
 16 21  1  0  0  0
 17 18  1  0  0  0
 17 33  1  0  0  0
 18 19  2  0  0  0
 18 34  1  0  0  0
 19 35  1  0  0  0
 20 36  1  0  0  0
 20 37  1  0  0  0
 20 38  1  0  0  0
 21 39  1  0  0  0
 21 40  1  0  0  0
 21 41  1  0  0  0
M  CHG  2   6   1  12  -1
M  END
> <s_m_entry_id>
165

> <s_m_entry_name>
glide-dock_SP_comt_chembl_pv.164

> <s_m_Source_Path>
/home/csk/Desktop/cluster/DUD-E-result/comt/glide-dock_SP_comt_chembl

> <s_m_Source_File>
glide-dock_SP_comt_chembl_pv.maegz

> <i_m_Source_File_Index>
164

> <chembl_id>
CHEMBL4583818

> <chembl_pref_name>
None

> <i_lp_mmshare_version>
53161

> <i_f3d_flags>
0

> <r_lp_tautomer_probability>
0.995892618013405

> <s_lp_Force_Field>
OPLS_2005

> <r_lp_Energy>
17.994104

> <b_lp_Chiralities_Consistent>
1

> <s_lp_Variant>
CHEMBL2023_lig95 -1

> <s_i_glide_gridfile>
glide-grid_3bwm

> <i_i_glide_lignum>
117

> <i_i_glide_rotatable_bonds>
3

> <r_i_docking_score>
-7.87621020326937

> <r_i_glide_ligand_efficiency>
-0.375057628727113

> <r_i_glide_ligand_efficiency_sa>
-1.03475555838129

> <r_i_glide_ligand_efficiency_ln>
-1.94737705737707

> <r_i_glide_gscore>
-7.87621020326937

> <r_i_glide_lipo>
-0.751813758859909

> <r_i_glide_hbond>
-0.122493520690578

> <r_i_glide_metal>
-2.3

> <r_i_glide_rewards>
-2.22032113636364

> <r_i_glide_evdw>
-17.6605777740479

> <r_i_glide_ecoul>
-13.6459579467773

> <r_i_glide_erotb>
0.448340793363749

> <r_i_glide_esite>
0

> <r_i_glide_emodel>
-67.9544137074624

> <r_i_glide_energy>
-31.3065357208252

> <r_i_glide_einternal>
0.54191917181015

> <i_i_glide_confnum>
2

> <i_i_glide_posenum>
233

> <r_i_glide_eff_state_penalty>
0

> <s_user_duplicate_titles>
CHEMBL2023_lig95 ,CHEMBL2023_lig95 ,CHEMBL2023_lig95 ,CHEMBL2023_lig95 ,CHEMBL2023_lig95 

> <s_m_subgroup_title>
glide-dock_SP_comt_chembl_pv

> <s_m_subgroupid>
glide-dock_SP_comt_chembl_pv

> <b_m_subgroup_collapsed>
1

$$$$
CHEMBL2023_lig100 
                    3D
 Schrodinger Suite 2021-1.
 35 37  0  0  1  0            999 V2000
   -4.8540  -12.4293  -16.0661 C   0  0  0  0  0  0
   -4.3848  -13.4860  -16.8649 C   0  0  0  0  0  0
   -4.5129  -10.9342  -17.9545 C   0  0  0  0  0  0
   -4.8713  -11.1303  -16.6079 C   0  0  0  0  0  0
   -4.1093  -12.0448  -18.7254 C   0  0  0  0  0  0
   -4.0162  -13.2768  -18.1502 N   0  3  0  0  0  0
   -3.4710  -14.4196  -18.9108 C   0  0  0  0  0  0
   -3.6540  -14.2615  -20.4261 C   0  0  0  0  0  0
   -3.1525  -12.9655  -20.8609 N   0  0  2  0  0  0
   -3.9143  -11.8944  -20.2247 C   0  0  0  0  0  0
   -5.2540  -10.0866  -15.8230 O   0  0  0  0  0  0
   -5.2540  -12.6860  -14.7842 O   0  5  0  0  0  0
   -3.1707  -12.8425  -22.3276 C   0  0  0  0  0  0
   -4.5406  -13.0163  -22.9951 C   0  0  0  0  0  0
   -5.3754  -11.9104  -23.2979 C   0  0  0  0  0  0
   -6.6666  -12.1229  -23.8230 C   0  0  0  0  0  0
   -7.1286  -13.4291  -24.0707 C   0  0  0  0  0  0
   -6.2850  -14.5269  -23.8245 C   0  0  0  0  0  0
   -4.9966  -14.3198  -23.2973 C   0  0  0  0  0  0
   -4.8540  -10.2860  -23.0230 Cl  0  0  0  0  0  0
   -8.3832  -13.6325  -24.5408 F   0  0  0  0  0  0
   -4.3221  -14.5008  -16.4982 H   0  0  0  0  0  0
   -4.5891   -9.9563  -18.4088 H   0  0  0  0  0  0
   -3.9645  -15.3286  -18.5632 H   0  0  0  0  0  0
   -2.4190  -14.4954  -18.6485 H   0  0  0  0  0  0
   -4.7101  -14.3551  -20.6762 H   0  0  0  0  0  0
   -3.1197  -15.0588  -20.9443 H   0  0  0  0  0  0
   -3.4309  -10.9391  -20.4328 H   0  0  0  0  0  0
   -4.9179  -11.8432  -20.6463 H   0  0  0  0  0  0
   -5.5000   -9.3012  -16.2985 H   0  0  0  0  0  0
   -2.4957  -13.5930  -22.7412 H   0  0  0  0  0  0
   -2.7378  -11.8829  -22.6110 H   0  0  0  0  0  0
   -7.3094  -11.2795  -24.0286 H   0  0  0  0  0  0
   -6.6303  -15.5301  -24.0270 H   0  0  0  0  0  0
   -4.3675  -15.1751  -23.0968 H   0  0  0  0  0  0
  1  2  2  0  0  0
  1 12  1  0  0  0
  1  4  1  0  0  0
  2  6  1  0  0  0
  2 22  1  0  0  0
  3 23  1  0  0  0
  3  5  1  0  0  0
  3  4  2  0  0  0
  4 11  1  0  0  0
  5 10  1  0  0  0
  5  6  2  0  0  0
  6  7  1  0  0  0
  7  8  1  0  0  0
  7 24  1  0  0  0
  7 25  1  0  0  0
  8  9  1  0  0  0
  8 26  1  0  0  0
  8 27  1  0  0  0
  9 10  1  0  0  0
  9 13  1  0  0  0
 10 28  1  0  0  0
 10 29  1  0  0  0
 11 30  1  0  0  0
 13 14  1  0  0  0
 13 31  1  0  0  0
 13 32  1  0  0  0
 14 15  2  0  0  0
 14 19  1  0  0  0
 15 16  1  0  0  0
 15 20  1  0  0  0
 16 17  2  0  0  0
 16 33  1  0  0  0
 17 18  1  0  0  0
 17 21  1  0  0  0
 18 19  2  0  0  0
 18 34  1  0  0  0
 19 35  1  0  0  0
M  CHG  2   6   1  12  -1
M  END
> <s_m_entry_id>
166

> <s_m_entry_name>
glide-dock_SP_comt_chembl_pv.165

> <s_m_Source_Path>
/home/csk/Desktop/cluster/DUD-E-result/comt/glide-dock_SP_comt_chembl

> <s_m_Source_File>
glide-dock_SP_comt_chembl_pv.maegz

> <i_m_Source_File_Index>
165

> <chembl_id>
CHEMBL4447751

> <chembl_pref_name>
None

> <i_lp_mmshare_version>
53161

> <i_f3d_flags>
0

> <r_lp_tautomer_probability>
0.995892618013405

> <s_lp_Force_Field>
OPLS_2005

> <r_lp_Energy>
16.470765

> <b_lp_Chiralities_Consistent>
1

> <s_lp_Variant>
CHEMBL2023_lig100 -1

> <s_i_glide_gridfile>
glide-grid_3bwm

> <i_i_glide_lignum>
122

> <i_i_glide_rotatable_bonds>
3

> <r_i_docking_score>
-7.86769225295681

> <r_i_glide_ligand_efficiency>
-0.374652012045563

> <r_i_glide_ligand_efficiency_sa>
-1.03363649271336

> <r_i_glide_ligand_efficiency_ln>
-1.94527101137443

> <r_i_glide_gscore>
-7.86769225295681

> <r_i_glide_lipo>
-0.556415727211787

> <r_i_glide_hbond>
-0.122801260533247

> <r_i_glide_metal>
-2.3

> <r_i_glide_rewards>
-2.05407979772727

> <r_i_glide_evdw>
-18.3046855926514

> <r_i_glide_ecoul>
-15.0577411651611

> <r_i_glide_erotb>
0.388300971391106

> <r_i_glide_esite>
-0.0488009844688762

> <r_i_glide_emodel>
-68.6760764687248

> <r_i_glide_energy>
-33.3624267578125

> <r_i_glide_einternal>
4.05243062973022

> <i_i_glide_confnum>
5

> <i_i_glide_posenum>
301

> <r_i_glide_eff_state_penalty>
0

> <s_user_duplicate_titles>
CHEMBL2023_lig100 ,CHEMBL2023_lig100 ,CHEMBL2023_lig100 ,CHEMBL2023_lig100 ,CHEMBL2023_lig100 

> <s_m_subgroup_title>
glide-dock_SP_comt_chembl_pv

> <s_m_subgroupid>
glide-dock_SP_comt_chembl_pv

> <b_m_subgroup_collapsed>
1

$$$$
CHEMBL2023_lig116
                    3D
 Schrodinger Suite 2021-1.
 40 41  0  0  1  0            999 V2000
   -4.8017  -12.3816  -16.2724 C   0  0  0  0  0  0
   -4.7869  -11.0465  -16.6941 C   0  0  0  0  0  0
   -4.2864  -10.7197  -17.9778 C   0  0  0  0  0  0
   -4.3295  -13.3969  -17.1131 C   0  0  0  0  0  0
   -3.8251  -13.1253  -18.4029 C   0  0  0  0  0  0
   -3.8287  -11.7589  -18.8267 C   0  0  0  0  0  0
   -3.2017  -11.6412  -20.4737 S   0  0  0  0  0  0
   -2.8540  -13.3460  -20.5296 C   0  0  0  0  0  0
   -3.2540  -14.0117  -19.3919 C   0  0  0  0  0  0
   -3.0808  -15.6623  -19.0134 Cl  0  0  0  0  0  0
   -2.1552  -13.8353  -21.7231 C   0  0  0  0  0  0
   -2.0619  -15.1863  -21.7449 O   0  0  0  0  0  0
   -1.6915  -13.0802  -22.5806 O   0  0  0  0  0  0
   -5.2540  -12.6860  -15.0230 O   0  0  0  0  0  0
   -5.2540  -10.1038  -15.8230 O   0  0  0  0  0  0
   -4.1857   -9.3151  -18.4041 N   0  3  0  0  0  0
   -3.1827   -8.9826  -19.0230 O   0  0  0  0  0  0
   -5.0754   -8.5412  -18.0677 O   0  5  0  0  0  0
   -1.1607  -15.7425  -22.6619 C   0  0  1  0  0  0
    0.1988  -15.5395  -22.3310 O   0  0  0  0  0  0
    0.6597  -15.9552  -21.1122 C   0  0  0  0  0  0
    2.1633  -15.7188  -20.9665 C   0  0  0  0  0  0
   -0.0058  -16.4281  -20.1891 O   0  0  0  0  0  0
    2.8439  -16.6982  -19.9936 C   0  0  0  0  0  0
    4.3283  -16.3741  -19.7982 C   0  0  0  0  0  0
   -1.4799  -17.2471  -22.7878 C   0  0  0  0  0  0
   -4.3490  -14.4207  -16.7702 H   0  0  0  0  0  0
   -5.6540  -13.5624  -15.0488 H   0  0  0  0  0  0
   -5.4657   -9.2718  -16.2424 H   0  0  0  0  0  0
   -1.3132  -15.2740  -23.6361 H   0  0  0  0  0  0
    2.3098  -14.6948  -20.6231 H   0  0  0  0  0  0
    2.6302  -15.7906  -21.9492 H   0  0  0  0  0  0
    2.7445  -17.7171  -20.3702 H   0  0  0  0  0  0
    2.3467  -16.6860  -19.0230 H   0  0  0  0  0  0
    4.7869  -17.0613  -19.0868 H   0  0  0  0  0  0
    4.4635  -15.3615  -19.4171 H   0  0  0  0  0  0
    4.8757  -16.4524  -20.7379 H   0  0  0  0  0  0
   -1.4358  -17.7519  -21.8230 H   0  0  0  0  0  0
   -2.4873  -17.3715  -23.1852 H   0  0  0  0  0  0
   -0.7762  -17.7205  -23.4728 H   0  0  0  0  0  0
  1 14  1  0  0  0
  1  2  2  0  0  0
  1  4  1  0  0  0
  2 15  1  0  0  0
  2  3  1  0  0  0
  3  6  2  0  0  0
  3 16  1  0  0  0
  4  5  2  0  0  0
  4 27  1  0  0  0
  5  9  1  0  0  0
  5  6  1  0  0  0
  6  7  1  0  0  0
  7  8  1  0  0  0
  8 11  1  0  0  0
  8  9  2  0  0  0
  9 10  1  0  0  0
 11 13  2  0  0  0
 11 12  1  0  0  0
 12 19  1  0  0  0
 14 28  1  0  0  0
 15 29  1  0  0  0
 16 17  2  0  0  0
 16 18  1  0  0  0
 19 20  1  0  0  0
 19 26  1  0  0  0
 19 30  1  0  0  0
 20 21  1  0  0  0
 21 22  1  0  0  0
 21 23  2  0  0  0
 22 24  1  0  0  0
 22 31  1  0  0  0
 22 32  1  0  0  0
 24 25  1  0  0  0
 24 33  1  0  0  0
 24 34  1  0  0  0
 25 35  1  0  0  0
 25 36  1  0  0  0
 25 37  1  0  0  0
 26 38  1  0  0  0
 26 39  1  0  0  0
 26 40  1  0  0  0
M  CHG  2  16   1  18  -1
M  END
> <s_m_entry_id>
167

> <s_m_entry_name>
glide-dock_SP_comt_chembl_pv.166

> <s_m_Source_Path>
/home/csk/Desktop/cluster/DUD-E-result/comt/glide-dock_SP_comt_chembl

> <s_m_Source_File>
glide-dock_SP_comt_chembl_pv.maegz

> <i_m_Source_File_Index>
166

> <chembl_id>
CHEMBL1091981

> <chembl_pref_name>
None

> <i_lp_mmshare_version>
53161

> <i_f3d_flags>
0

> <r_lp_tautomer_probability>
1

> <s_lp_Force_Field>
OPLS_2005

> <r_lp_Energy>
14.683365

> <b_lp_Chiralities_Consistent>
1

> <s_lp_Variant>
CHEMBL2023_lig116-2

> <s_i_glide_gridfile>
glide-grid_3bwm

> <i_i_glide_lignum>
140

> <i_i_glide_rotatable_bonds>
10

> <r_i_docking_score>
-7.8640759496582

> <r_i_glide_ligand_efficiency>
-0.302464459602238

> <r_i_glide_ligand_efficiency_sa>
-0.896049771431453

> <r_i_glide_ligand_efficiency_ln>
-1.84685243263936

> <r_i_glide_gscore>
-7.8640759496582

> <r_i_glide_lipo>
-0.998363176239525

> <r_i_glide_hbond>
0

> <r_i_glide_metal>
-2.3

> <r_i_glide_rewards>
-0.644820702550777

> <r_i_glide_evdw>
-31.0843925476074

> <r_i_glide_ecoul>
-20.5277652740479

> <r_i_glide_erotb>
0.722616466563905

> <r_i_glide_esite>
-0.0101241189442545

> <r_i_glide_emodel>
-82.6174149684902

> <r_i_glide_energy>
-51.6121578216553

> <r_i_glide_einternal>
3.59383201599121

> <i_i_glide_confnum>
7

> <i_i_glide_posenum>
299

> <r_i_glide_eff_state_penalty>
0

> <s_user_duplicate_titles>
CHEMBL2023_lig116,CHEMBL2023_lig116,CHEMBL2023_lig116,CHEMBL2023_lig116,CHEMBL2023_lig116

> <s_m_subgroup_title>
glide-dock_SP_comt_chembl_pv

> <s_m_subgroupid>
glide-dock_SP_comt_chembl_pv

> <b_m_subgroup_collapsed>
1

$$$$
CHEMBL2023_lig89 
                    3D
 Schrodinger Suite 2021-1.
 39 41  0  0  1  0            999 V2000
   -4.8401  -12.4373  -16.0934 C   0  0  0  0  0  0
   -4.3412  -13.4860  -16.8929 C   0  0  0  0  0  0
   -4.5117  -10.9278  -17.9678 C   0  0  0  0  0  0
   -4.8688  -11.1350  -16.6230 C   0  0  0  0  0  0
   -4.0873  -12.0298  -18.7409 C   0  0  0  0  0  0
   -3.9511  -13.2607  -18.1710 N   0  3  0  0  0  0
   -3.3618  -14.3928  -18.9353 C   0  0  0  0  0  0
   -3.0010  -14.0531  -20.3981 C   0  0  0  0  0  0
   -3.9577  -13.1118  -20.9606 N   0  0  1  0  0  0
   -3.8043  -11.8623  -20.2204 C   0  0  0  0  0  0
   -5.2540  -10.1015  -15.8230 O   0  0  0  0  0  0
   -5.2540  -12.6860  -14.8144 O   0  5  0  0  0  0
   -3.6807  -12.9073  -22.3831 C   0  0  0  0  0  0
   -4.7306  -12.0619  -23.0890 C   0  0  0  0  0  0
   -5.9487  -12.6428  -23.5167 C   0  0  0  0  0  0
   -6.9163  -11.8192  -24.1473 C   0  0  0  0  0  0
   -6.6666  -10.4492  -24.3524 C   0  0  0  0  0  0
   -5.4471   -9.8860  -23.9386 C   0  0  0  0  0  0
   -4.4815  -10.6905  -23.3092 C   0  0  0  0  0  0
   -6.1245  -13.9929  -23.2950 O   0  0  0  0  0  0
   -7.2845  -14.6169  -23.8230 C   0  0  0  0  0  0
   -4.2626  -14.5030  -16.5359 H   0  0  0  0  0  0
   -4.5901   -9.9470  -18.4149 H   0  0  0  0  0  0
   -4.0540  -15.2276  -18.8885 H   0  0  0  0  0  0
   -2.4695  -14.7160  -18.4013 H   0  0  0  0  0  0
   -2.9789  -14.9707  -20.9875 H   0  0  0  0  0  0
   -2.0033  -13.6230  -20.4574 H   0  0  0  0  0  0
   -2.8011  -11.4525  -20.3498 H   0  0  0  0  0  0
   -4.5060  -11.1221  -20.6065 H   0  0  0  0  0  0
   -5.5112   -9.3148  -16.2905 H   0  0  0  0  0  0
   -3.6402  -13.8751  -22.8852 H   0  0  0  0  0  0
   -2.6961  -12.4561  -22.5171 H   0  0  0  0  0  0
   -7.8623  -12.2128  -24.4847 H   0  0  0  0  0  0
   -7.4111   -9.8304  -24.8317 H   0  0  0  0  0  0
   -5.2540   -8.8354  -24.1006 H   0  0  0  0  0  0
   -3.5499  -10.2483  -22.9882 H   0  0  0  0  0  0
   -7.2511  -15.6832  -23.5992 H   0  0  0  0  0  0
   -8.1930  -14.2143  -23.3740 H   0  0  0  0  0  0
   -7.3369  -14.5081  -24.9072 H   0  0  0  0  0  0
  1  2  2  0  0  0
  1 12  1  0  0  0
  1  4  1  0  0  0
  2  6  1  0  0  0
  2 22  1  0  0  0
  3 23  1  0  0  0
  3  5  1  0  0  0
  3  4  2  0  0  0
  4 11  1  0  0  0
  5 10  1  0  0  0
  5  6  2  0  0  0
  6  7  1  0  0  0
  7  8  1  0  0  0
  7 24  1  0  0  0
  7 25  1  0  0  0
  8  9  1  0  0  0
  8 26  1  0  0  0
  8 27  1  0  0  0
  9 10  1  0  0  0
  9 13  1  0  0  0
 10 28  1  0  0  0
 10 29  1  0  0  0
 11 30  1  0  0  0
 13 14  1  0  0  0
 13 31  1  0  0  0
 13 32  1  0  0  0
 14 15  2  0  0  0
 14 19  1  0  0  0
 15 16  1  0  0  0
 15 20  1  0  0  0
 16 17  2  0  0  0
 16 33  1  0  0  0
 17 18  1  0  0  0
 17 34  1  0  0  0
 18 19  2  0  0  0
 18 35  1  0  0  0
 19 36  1  0  0  0
 20 21  1  0  0  0
 21 37  1  0  0  0
 21 38  1  0  0  0
 21 39  1  0  0  0
M  CHG  2   6   1  12  -1
M  END
> <s_m_entry_id>
168

> <s_m_entry_name>
glide-dock_SP_comt_chembl_pv.167

> <s_m_Source_Path>
/home/csk/Desktop/cluster/DUD-E-result/comt/glide-dock_SP_comt_chembl

> <s_m_Source_File>
glide-dock_SP_comt_chembl_pv.maegz

> <i_m_Source_File_Index>
167

> <chembl_id>
CHEMBL4538981

> <chembl_pref_name>
None

> <i_lp_mmshare_version>
53161

> <i_f3d_flags>
0

> <r_lp_tautomer_probability>
0.995892618013405

> <s_lp_Force_Field>
OPLS_2005

> <r_lp_Energy>
20.394072

> <b_lp_Chiralities_Consistent>
1

> <s_lp_Variant>
CHEMBL2023_lig89 -1

> <s_i_glide_gridfile>
glide-grid_3bwm

> <i_i_glide_lignum>
111

> <i_i_glide_rotatable_bonds>
4

> <r_i_docking_score>
-7.86192295749524

> <r_i_glide_ligand_efficiency>
-0.37437728369025

> <r_i_glide_ligand_efficiency_sa>
-1.03287853801272

> <r_i_glide_ligand_efficiency_ln>
-1.94384456472952

> <r_i_glide_gscore>
-7.86192295749524

> <r_i_glide_lipo>
-0.727657268043198

> <r_i_glide_hbond>
-0.122486019141299

> <r_i_glide_metal>
-2.3

> <r_i_glide_rewards>
-2.20687009090909

> <r_i_glide_evdw>
-17.9336338043213

> <r_i_glide_ecoul>
-13.6747055053711

> <r_i_glide_erotb>
0.442977936620071

> <r_i_glide_esite>
0

> <r_i_glide_emodel>
-68.6353319995828

> <r_i_glide_energy>
-31.6083393096924

> <r_i_glide_einternal>
0.185720279812813

> <i_i_glide_confnum>
1

> <i_i_glide_posenum>
147

> <r_i_glide_eff_state_penalty>
0

> <s_user_duplicate_titles>
CHEMBL2023_lig89 ,CHEMBL2023_lig89 ,CHEMBL2023_lig89 ,CHEMBL2023_lig89 ,CHEMBL2023_lig89 

> <s_m_subgroup_title>
glide-dock_SP_comt_chembl_pv

> <s_m_subgroupid>
glide-dock_SP_comt_chembl_pv

> <b_m_subgroup_collapsed>
1

$$$$
CHEMBL2023_lig82 
                    3D
 Schrodinger Suite 2021-1.
 35 37  0  0  1  0            999 V2000
   -4.8363  -12.4830  -15.9896 C   0  0  0  0  0  0
   -4.3090  -13.5528  -16.7411 C   0  0  0  0  0  0
   -4.4974  -11.0461  -17.9208 C   0  0  0  0  0  0
   -4.8688  -11.2035  -16.5730 C   0  0  0  0  0  0
   -4.0645  -12.1775  -18.6467 C   0  0  0  0  0  0
   -3.9195  -13.3833  -18.0275 N   0  3  0  0  0  0
   -3.3438  -14.5489  -18.7542 C   0  0  0  0  0  0
   -2.9903  -14.2679  -20.2290 C   0  0  0  0  0  0
   -3.9578  -13.3530  -20.8113 N   0  0  1  0  0  0
   -3.7858  -12.0713  -20.1311 C   0  0  0  0  0  0
   -5.2716  -10.1399  -15.8232 O   0  0  0  0  0  0
   -5.2504  -12.6925  -14.7056 O   0  5  0  0  0  0
   -3.7102  -13.2130  -22.2436 C   0  0  0  0  0  0
   -4.7356  -12.3419  -22.9485 C   0  0  0  0  0  0
   -4.3179  -11.2184  -23.6917 C   0  0  0  0  0  0
   -5.2717  -10.3992  -24.3269 C   0  0  0  0  0  0
   -6.6438  -10.7016  -24.2237 C   0  0  0  0  0  0
   -7.0635  -11.8245  -23.4853 C   0  0  0  0  0  0
   -6.1105  -12.6429  -22.8503 C   0  0  0  0  0  0
   -4.2299  -14.5534  -16.3415 H   0  0  0  0  0  0
   -4.5697  -10.0818  -18.4032 H   0  0  0  0  0  0
   -4.0544  -15.3652  -18.6779 H   0  0  0  0  0  0
   -2.4548  -14.8726  -18.2209 H   0  0  0  0  0  0
   -2.9659  -15.2060  -20.7839 H   0  0  0  0  0  0
   -1.9995  -13.8283  -20.3200 H   0  0  0  0  0  0
   -2.7789  -11.6777  -20.2831 H   0  0  0  0  0  0
   -4.4828  -11.3401  -20.5432 H   0  0  0  0  0  0
   -5.5111   -9.3702  -16.3268 H   0  0  0  0  0  0
   -3.7433  -14.1991  -22.7097 H   0  0  0  0  0  0
   -2.7067  -12.8194  -22.4134 H   0  0  0  0  0  0
   -3.2673  -10.9774  -23.7718 H   0  0  0  0  0  0
   -4.9497   -9.5376  -24.8930 H   0  0  0  0  0  0
   -7.3741  -10.0695  -24.7069 H   0  0  0  0  0  0
   -8.1157  -12.0490  -23.3930 H   0  0  0  0  0  0
   -6.4366  -13.4918  -22.2709 H   0  0  0  0  0  0
  1  2  2  0  0  0
  1 12  1  0  0  0
  1  4  1  0  0  0
  2  6  1  0  0  0
  2 20  1  0  0  0
  3 21  1  0  0  0
  3  5  1  0  0  0
  3  4  2  0  0  0
  4 11  1  0  0  0
  5 10  1  0  0  0
  5  6  2  0  0  0
  6  7  1  0  0  0
  7  8  1  0  0  0
  7 22  1  0  0  0
  7 23  1  0  0  0
  8  9  1  0  0  0
  8 24  1  0  0  0
  8 25  1  0  0  0
  9 10  1  0  0  0
  9 13  1  0  0  0
 10 26  1  0  0  0
 10 27  1  0  0  0
 11 28  1  0  0  0
 13 14  1  0  0  0
 13 29  1  0  0  0
 13 30  1  0  0  0
 14 15  2  0  0  0
 14 19  1  0  0  0
 15 16  1  0  0  0
 15 31  1  0  0  0
 16 17  2  0  0  0
 16 32  1  0  0  0
 17 18  1  0  0  0
 17 33  1  0  0  0
 18 19  2  0  0  0
 18 34  1  0  0  0
 19 35  1  0  0  0
M  CHG  2   6   1  12  -1
M  END
> <s_m_entry_id>
169

> <s_m_entry_name>
glide-dock_SP_comt_chembl_pv.168

> <s_m_Source_Path>
/home/csk/Desktop/cluster/DUD-E-result/comt/glide-dock_SP_comt_chembl

> <s_m_Source_File>
glide-dock_SP_comt_chembl_pv.maegz

> <i_m_Source_File_Index>
168

> <chembl_id>
CHEMBL4438313

> <chembl_pref_name>
None

> <i_lp_mmshare_version>
53161

> <i_f3d_flags>
0

> <r_lp_tautomer_probability>
0.995892618013405

> <s_lp_Force_Field>
OPLS_2005

> <r_lp_Energy>
15.740538

> <b_lp_Chiralities_Consistent>
1

> <s_lp_Variant>
CHEMBL2023_lig82 -1

> <s_i_glide_gridfile>
glide-grid_3bwm

> <i_i_glide_lignum>
104

> <i_i_glide_rotatable_bonds>
3

> <r_i_docking_score>
-7.86010084808639

> <r_i_glide_ligand_efficiency>
-0.413689518320336

> <r_i_glide_ligand_efficiency_sa>
-1.10388979166153

> <r_i_glide_ligand_efficiency_ln>
-1.99270438447686

> <r_i_glide_gscore>
-7.86010084808639

> <r_i_glide_lipo>
-0.632004427404342

> <r_i_glide_hbond>
-0.123829889299935

> <r_i_glide_metal>
-2.3

> <r_i_glide_rewards>
-2.41159268181818

> <r_i_glide_evdw>
-15.6441812515259

> <r_i_glide_ecoul>
-14.3136148452759

> <r_i_glide_erotb>
0.536577439803749

> <r_i_glide_esite>
0

> <r_i_glide_emodel>
-66.8544606123796

> <r_i_glide_energy>
-29.9577960968018

> <r_i_glide_einternal>
0.262069046497345

> <i_i_glide_confnum>
1

> <i_i_glide_posenum>
20

> <r_i_glide_eff_state_penalty>
0

> <s_user_duplicate_titles>
CHEMBL2023_lig82 ,CHEMBL2023_lig82 ,CHEMBL2023_lig82 ,CHEMBL2023_lig82 

> <s_m_subgroup_title>
glide-dock_SP_comt_chembl_pv

> <s_m_subgroupid>
glide-dock_SP_comt_chembl_pv

> <b_m_subgroup_collapsed>
1

$$$$
CHEMBL2023_lig107 
                    3D
 Schrodinger Suite 2021-1.
 32 33  0  0  1  0            999 V2000
   -2.5507  -15.1296  -19.8197 C   0  0  0  0  0  0
   -2.4407  -14.6812  -21.1522 C   0  0  0  0  0  0
   -2.9972  -13.4281  -21.5188 C   0  0  0  0  0  0
   -3.6508  -12.6515  -20.5359 C   0  0  0  0  0  0
   -3.7704  -13.1014  -19.2029 C   0  0  0  0  0  0
   -3.2331  -14.3591  -18.8646 C   0  0  0  0  0  0
   -4.4674  -12.3143  -18.1685 C   0  0  0  0  0  0
   -4.3991  -10.9677  -18.0212 C   0  0  0  0  0  0
   -5.2536  -13.0860  -17.4012 O   0  0  0  0  0  0
   -3.5530  -10.1524  -18.8326 C   0  0  0  0  0  0
   -2.8458   -9.4860  -19.4601 N   0  0  0  0  0  0
   -1.9809  -16.3071  -19.4304 O   0  0  0  0  0  0
   -1.7945  -15.4732  -22.0619 O   0  0  0  0  0  0
   -2.9224  -12.9094  -22.8967 N   0  3  0  0  0  0
   -3.0905  -13.6875  -23.8299 O   0  5  0  0  0  0
   -2.7305  -11.7052  -23.0366 O   0  0  0  0  0  0
   -5.1793  -10.2654  -17.0083 C   0  0  0  0  0  0
   -5.7999   -9.1894  -17.5332 N   0  0  0  0  0  0
   -6.8538   -8.4165  -16.9879 C   0  0  0  0  0  0
   -5.2541  -10.6271  -15.8230 O   0  0  0  0  0  0
   -7.4526   -8.6862  -15.8248 N   0  0  0  0  0  0
   -8.4541   -7.7611  -15.5215 C   0  0  0  0  0  0
   -8.6136   -6.7946  -16.4839 C   0  0  0  0  0  0
   -7.5214   -7.0218  -17.8237 S   0  0  0  0  0  0
   -4.0915  -11.7102  -20.8290 H   0  0  0  0  0  0
   -3.3118  -14.7277  -17.8512 H   0  0  0  0  0  0
   -5.7183  -12.5437  -16.7835 H   0  0  0  0  0  0
   -1.2555  -16.5748  -19.9745 H   0  0  0  0  0  0
   -1.8943  -16.4010  -21.9050 H   0  0  0  0  0  0
   -5.5891   -8.9667  -18.4946 H   0  0  0  0  0  0
   -8.9923   -7.8562  -14.5895 H   0  0  0  0  0  0
   -9.3040   -5.9639  -16.4802 H   0  0  0  0  0  0
  1  2  2  0  0  0
  1  6  1  0  0  0
  1 12  1  0  0  0
  2  3  1  0  0  0
  2 13  1  0  0  0
  3  4  2  0  0  0
  3 14  1  0  0  0
  4  5  1  0  0  0
  4 25  1  0  0  0
  5  6  2  0  0  0
  5  7  1  0  0  0
  6 26  1  0  0  0
  7  8  2  0  0  0
  7  9  1  0  0  0
  8 10  1  0  0  0
  8 17  1  0  0  0
  9 27  1  0  0  0
 10 11  3  0  0  0
 12 28  1  0  0  0
 13 29  1  0  0  0
 14 15  1  0  0  0
 14 16  2  0  0  0
 17 18  1  0  0  0
 17 20  2  0  0  0
 18 19  1  0  0  0
 18 30  1  0  0  0
 19 21  2  0  0  0
 19 24  1  0  0  0
 21 22  1  0  0  0
 22 23  2  0  0  0
 22 31  1  0  0  0
 23 24  1  0  0  0
 23 32  1  0  0  0
M  CHG  2  14   1  15  -1
M  END
> <s_m_entry_id>
176

> <s_m_entry_name>
glide-dock_SP_comt_chembl_pv.175

> <s_m_Source_Path>
/home/csk/Desktop/cluster/DUD-E-result/comt/glide-dock_SP_comt_chembl

> <s_m_Source_File>
glide-dock_SP_comt_chembl_pv.maegz

> <i_m_Source_File_Index>
175

> <chembl_id>
CHEMBL4435468

> <chembl_pref_name>
None

> <i_lp_mmshare_version>
53161

> <i_f3d_flags>
0

> <r_lp_tautomer_probability>
1

> <s_lp_Force_Field>
OPLS_2005

> <r_lp_Energy>
22.299942

> <b_lp_Chiralities_Consistent>
1

> <s_lp_Variant>
CHEMBL2023_lig107 -1

> <s_i_glide_gridfile>
glide-grid_3bwm

> <i_i_glide_lignum>
129

> <i_i_glide_rotatable_bonds>
8

> <r_i_docking_score>
-7.83792477361254

> <r_i_glide_ligand_efficiency>
-0.326580198900522

> <r_i_glide_ligand_efficiency_sa>
-0.942020302072442

> <r_i_glide_ligand_efficiency_ln>
-1.87597505725765

> <r_i_glide_gscore>
-7.83792477361254

> <r_i_glide_lipo>
-1.41826498348113

> <r_i_glide_hbond>
-0.286356524458863

> <r_i_glide_metal>
-2.3

> <r_i_glide_rewards>
-1.0147534688969

> <r_i_glide_evdw>
-32.9372444152832

> <r_i_glide_ecoul>
-11.2577228546143

> <r_i_glide_erotb>
0.627656436263861

> <r_i_glide_esite>
-0.1106855840832

> <r_i_glide_emodel>
-70.5381964788763

> <r_i_glide_energy>
-44.1949672698975

> <r_i_glide_einternal>
5.85165786743164

> <i_i_glide_confnum>
3

> <i_i_glide_posenum>
379

> <r_i_glide_eff_state_penalty>
0

> <s_user_duplicate_titles>
CHEMBL2023_lig107 ,CHEMBL2023_lig107 ,CHEMBL2023_lig107 ,CHEMBL2023_lig107 ,CHEMBL2023_lig107 

> <s_m_subgroup_title>
glide-dock_SP_comt_chembl_pv

> <s_m_subgroupid>
glide-dock_SP_comt_chembl_pv

> <b_m_subgroup_collapsed>
1

$$$$
CHEMBL2023_lig5
                    3D
 Schrodinger Suite 2021-1.
 37 37  0  0  1  0            999 V2000
   -4.8191  -12.3157  -16.4135 C   0  0  0  0  0  0
   -4.7882  -10.9504  -16.7406 C   0  0  0  0  0  0
   -4.2793  -10.5306  -17.9879 C   0  0  0  0  0  0
   -3.8800  -11.5031  -18.9248 C   0  0  0  0  0  0
   -3.9228  -12.8838  -18.6312 C   0  0  0  0  0  0
   -4.3911  -13.2775  -17.3550 C   0  0  0  0  0  0
   -3.4634  -13.9166  -19.5918 C   0  0  0  0  0  0
   -2.6550  -13.7771  -20.6740 C   0  0  0  0  0  0
   -5.2540  -12.6860  -15.1681 O   0  0  0  0  0  0
   -5.2540  -10.0585  -15.8230 O   0  0  0  0  0  0
   -4.0964   -9.1074  -18.3106 N   0  3  0  0  0  0
   -4.8659   -8.2860  -17.8230 O   0  5  0  0  0  0
   -3.1414   -8.8226  -19.0230 O   0  0  0  0  0  0
   -2.3603  -14.8849  -21.5746 C   0  0  0  0  0  0
   -1.6540  -15.9461  -21.0838 N   0  0  0  0  0  0
   -2.7339  -14.8513  -22.7471 O   0  0  0  0  0  0
   -1.4048  -17.1130  -21.9530 C   0  0  0  0  0  0
   -0.2770  -16.8625  -22.9702 C   0  0  0  0  0  0
   -1.1216  -16.1147  -19.7181 C   0  0  0  0  0  0
    0.4038  -15.9666  -19.6803 C   0  0  0  0  0  0
   -2.0540  -12.5549  -21.0951 C   0  0  0  0  0  0
   -1.5402  -11.5696  -21.4230 N   0  0  0  0  0  0
   -3.5602  -11.1473  -19.8875 H   0  0  0  0  0  0
   -4.4263  -14.3260  -17.0923 H   0  0  0  0  0  0
   -3.8535  -14.9048  -19.3929 H   0  0  0  0  0  0
   -5.6472  -13.5652  -15.2229 H   0  0  0  0  0  0
   -5.4285   -9.1975  -16.2000 H   0  0  0  0  0  0
   -2.3150  -17.3840  -22.4915 H   0  0  0  0  0  0
   -1.1546  -17.9931  -21.3594 H   0  0  0  0  0  0
   -0.1049  -17.7515  -23.5770 H   0  0  0  0  0  0
    0.6632  -16.6148  -22.4786 H   0  0  0  0  0  0
   -0.5198  -16.0470  -23.6515 H   0  0  0  0  0  0
   -1.5376  -15.4166  -18.9995 H   0  0  0  0  0  0
   -1.4037  -17.0944  -19.3296 H   0  0  0  0  0  0
    0.7460  -15.8860  -18.6501 H   0  0  0  0  0  0
    0.8960  -16.8349  -20.1182 H   0  0  0  0  0  0
    0.7460  -15.0860  -20.2230 H   0  0  0  0  0  0
  1  6  1  0  0  0
  1  2  2  0  0  0
  1  9  1  0  0  0
  2 10  1  0  0  0
  2  3  1  0  0  0
  3 11  1  0  0  0
  3  4  2  0  0  0
  4  5  1  0  0  0
  4 23  1  0  0  0
  5  6  2  0  0  0
  5  7  1  0  0  0
  6 24  1  0  0  0
  7  8  2  0  0  0
  7 25  1  0  0  0
  8 14  1  0  0  0
  8 21  1  0  0  0
  9 26  1  0  0  0
 10 27  1  0  0  0
 11 12  1  0  0  0
 11 13  2  0  0  0
 14 15  1  0  0  0
 14 16  2  0  0  0
 15 17  1  0  0  0
 15 19  1  0  0  0
 17 18  1  0  0  0
 17 28  1  0  0  0
 17 29  1  0  0  0
 18 30  1  0  0  0
 18 31  1  0  0  0
 18 32  1  0  0  0
 19 20  1  0  0  0
 19 33  1  0  0  0
 19 34  1  0  0  0
 20 35  1  0  0  0
 20 36  1  0  0  0
 20 37  1  0  0  0
 21 22  3  0  0  0
M  CHG  2  11   1  12  -1
M  END
> <s_m_entry_id>
177

> <s_m_entry_name>
glide-dock_SP_comt_chembl_pv.176

> <s_m_Source_Path>
/home/csk/Desktop/cluster/DUD-E-result/comt/glide-dock_SP_comt_chembl

> <s_m_Source_File>
glide-dock_SP_comt_chembl_pv.maegz

> <i_m_Source_File_Index>
176

> <chembl_id>
CHEMBL953

> <chembl_pref_name>
ENTACAPONE

> <i_lp_mmshare_version>
53161

> <i_f3d_flags>
0

> <r_lp_tautomer_probability>
1

> <s_lp_Force_Field>
OPLS_2005

> <r_lp_Energy>
34.62512

> <b_lp_Chiralities_Consistent>
1

> <s_lp_Variant>
CHEMBL2023_lig5-1

> <s_i_glide_gridfile>
glide-grid_3bwm

> <i_i_glide_lignum>
9

> <i_i_glide_rotatable_bonds>
8

> <r_i_docking_score>
-7.83744080981273

> <r_i_glide_ligand_efficiency>
-0.356247309536942

> <r_i_glide_ligand_efficiency_sa>
-0.998218971734164

> <r_i_glide_ligand_efficiency_ln>
-1.91575641151781

> <r_i_glide_gscore>
-7.83744080981273

> <r_i_glide_lipo>
-0.832836599596688

> <r_i_glide_hbond>
0

> <r_i_glide_metal>
-2.3

> <r_i_glide_rewards>
-1.32753390923433

> <r_i_glide_evdw>
-25.3215084075928

> <r_i_glide_ecoul>
-17.8699645996094

> <r_i_glide_erotb>
0.594044321147124

> <r_i_glide_esite>
-0.0245445118077996

> <r_i_glide_emodel>
-68.0221177455683

> <r_i_glide_energy>
-43.1914730072021

> <r_i_glide_einternal>
5.91652584075928

> <i_i_glide_confnum>
2

> <i_i_glide_posenum>
121

> <r_i_glide_eff_state_penalty>
0

> <s_user_duplicate_titles>
CHEMBL2023_lig5,CHEMBL2023_lig5,CHEMBL2023_lig5,CHEMBL2023_lig5,CHEMBL2023_lig5

> <s_m_subgroup_title>
glide-dock_SP_comt_chembl_pv

> <s_m_subgroupid>
glide-dock_SP_comt_chembl_pv

> <b_m_subgroup_collapsed>
1

$$$$
CHEMBL2023_lig13
                    3D
 Schrodinger Suite 2021-1.
 40 42  0  0  1  0            999 V2000
   -4.8540  -12.2829  -16.2776 C   0  0  0  0  0  0
   -4.4433  -13.2242  -17.2498 C   0  0  0  0  0  0
   -4.2910  -10.5196  -17.8665 C   0  0  0  0  0  0
   -4.8432  -10.9208  -16.6431 C   0  0  0  0  0  0
   -3.7812  -11.4792  -18.7606 C   0  0  0  0  0  0
   -3.9543  -12.8115  -18.4565 N   0  3  0  0  0  0
   -5.3461   -9.9708  -15.8230 O   0  0  0  0  0  0
   -5.2540  -12.6860  -15.0230 O   0  5  0  0  0  0
   -3.5532  -13.8269  -19.4089 C   0  0  0  0  0  0
   -3.9750  -13.7423  -20.7548 C   0  0  0  0  0  0
   -3.3967  -14.5543  -21.7516 C   0  0  0  0  0  0
   -2.4107  -15.4860  -21.3643 C   0  0  0  0  0  0
   -2.0988  -15.6874  -20.0061 C   0  0  0  0  0  0
   -2.7022  -14.8839  -19.0230 C   0  0  0  0  0  0
   -3.8153  -14.4319  -23.1591 C   0  0  0  0  0  0
   -4.1009  -15.5832  -23.9270 C   0  0  0  0  0  0
   -4.5128  -15.4735  -25.2693 C   0  0  0  0  0  0
   -4.6433  -14.2050  -25.8638 C   0  0  0  0  0  0
   -4.3595  -13.0495  -25.1130 C   0  0  0  0  0  0
   -3.9487  -13.1649  -23.7708 C   0  0  0  0  0  0
   -3.0092  -10.9585  -19.9873 C   0  0  2  0  0  0
   -2.0827   -9.9405  -19.6396 O   0  0  0  0  0  0
   -3.9248  -10.3381  -21.0526 C   0  0  0  0  0  0
   -4.4962  -14.2896  -17.0734 H   0  0  0  0  0  0
   -4.2247   -9.4680  -18.1087 H   0  0  0  0  0  0
   -5.5340   -9.1382  -16.2414 H   0  0  0  0  0  0
   -4.7348  -13.0339  -21.0360 H   0  0  0  0  0  0
   -1.9374  -16.1093  -22.1100 H   0  0  0  0  0  0
   -1.3948  -16.4564  -19.7210 H   0  0  0  0  0  0
   -2.4540  -15.0553  -17.9871 H   0  0  0  0  0  0
   -4.0135  -16.5642  -23.4815 H   0  0  0  0  0  0
   -4.7289  -16.3634  -25.8421 H   0  0  0  0  0  0
   -4.9576  -14.1183  -26.8937 H   0  0  0  0  0  0
   -4.4541  -12.0739  -25.5670 H   0  0  0  0  0  0
   -3.7253  -12.2680  -23.2142 H   0  0  0  0  0  0
   -2.4018  -11.7402  -20.4404 H   0  0  0  0  0  0
   -1.3836  -10.3275  -19.1335 H   0  0  0  0  0  0
   -4.6890  -11.0130  -21.4260 H   0  0  0  0  0  0
   -3.3517   -9.9873  -21.9116 H   0  0  0  0  0  0
   -4.4540   -9.4860  -20.6414 H   0  0  0  0  0  0
  1  2  2  0  0  0
  1  8  1  0  0  0
  1  4  1  0  0  0
  2  6  1  0  0  0
  2 24  1  0  0  0
  3 25  1  0  0  0
  3  5  1  0  0  0
  3  4  2  0  0  0
  4  7  1  0  0  0
  5 21  1  0  0  0
  5  6  2  0  0  0
  6  9  1  0  0  0
  7 26  1  0  0  0
  9 10  2  0  0  0
  9 14  1  0  0  0
 10 11  1  0  0  0
 10 27  1  0  0  0
 11 12  2  0  0  0
 11 15  1  0  0  0
 12 13  1  0  0  0
 12 28  1  0  0  0
 13 14  2  0  0  0
 13 29  1  0  0  0
 14 30  1  0  0  0
 15 16  2  0  0  0
 15 20  1  0  0  0
 16 17  1  0  0  0
 16 31  1  0  0  0
 17 18  2  0  0  0
 17 32  1  0  0  0
 18 19  1  0  0  0
 18 33  1  0  0  0
 19 20  2  0  0  0
 19 34  1  0  0  0
 20 35  1  0  0  0
 21 22  1  0  0  0
 21 23  1  0  0  0
 21 36  1  0  0  0
 22 37  1  0  0  0
 23 38  1  0  0  0
 23 39  1  0  0  0
 23 40  1  0  0  0
M  CHG  2   6   1   8  -1
M  END
> <s_m_entry_id>
178

> <s_m_entry_name>
glide-dock_SP_comt_chembl_pv.177

> <s_m_Source_Path>
/home/csk/Desktop/cluster/DUD-E-result/comt/glide-dock_SP_comt_chembl

> <s_m_Source_File>
glide-dock_SP_comt_chembl_pv.maegz

> <i_m_Source_File_Index>
177

> <chembl_id>
CHEMBL3425738

> <chembl_pref_name>
None

> <i_lp_mmshare_version>
53161

> <i_f3d_flags>
0

> <r_lp_tautomer_probability>
0.995892618013405

> <s_lp_Force_Field>
OPLS_2005

> <r_lp_Energy>
24.116412

> <b_lp_Chiralities_Consistent>
1

> <s_lp_Variant>
CHEMBL2023_lig13-1

> <s_i_glide_gridfile>
glide-grid_3bwm

> <i_i_glide_lignum>
21

> <i_i_glide_rotatable_bonds>
5

> <r_i_docking_score>
-7.83740587613014

> <r_i_glide_ligand_efficiency>
-0.34075677722305

> <r_i_glide_ligand_efficiency_sa>
-0.969066945892432

> <r_i_glide_ligand_efficiency_ln>
-1.89515580651568

> <r_i_glide_gscore>
-7.83740587613014

> <r_i_glide_lipo>
-0.643867648645117

> <r_i_glide_hbond>
-0.418430720046516

> <r_i_glide_metal>
-2.3

> <r_i_glide_rewards>
-1.61356922727273

> <r_i_glide_evdw>
-17.9038524627686

> <r_i_glide_ecoul>
-17.022891998291

> <r_i_glide_erotb>
0.587088142716299

> <r_i_glide_esite>
0

> <r_i_glide_emodel>
-69.2173844817895

> <r_i_glide_energy>
-34.9267444610596

> <r_i_glide_einternal>
5.15581274032593

> <i_i_glide_confnum>
21

> <i_i_glide_posenum>
157

> <r_i_glide_eff_state_penalty>
0

> <s_user_duplicate_titles>
CHEMBL2023_lig13,CHEMBL2023_lig13,CHEMBL2023_lig13,CHEMBL2023_lig13

> <s_m_subgroup_title>
glide-dock_SP_comt_chembl_pv

> <s_m_subgroupid>
glide-dock_SP_comt_chembl_pv

> <b_m_subgroup_collapsed>
1

$$$$
CHEMBL2023_lig36
                    3D
 Schrodinger Suite 2021-1.
 32 34  0  0  1  0            999 V2000
   -3.3512  -12.1064  -20.1434 C   0  0  0  0  0  0
   -3.7950  -12.2278  -18.7633 N   0  3  0  0  0  0
   -3.9053  -13.4934  -18.2875 C   0  0  0  0  0  0
   -4.3699  -13.7267  -16.9887 C   0  0  0  0  0  0
   -4.7392  -12.6371  -16.1845 C   0  0  0  0  0  0
   -4.5567  -11.3284  -16.6579 C   0  0  0  0  0  0
   -4.0766  -11.1414  -17.9813 C   0  0  0  0  0  0
   -5.2540  -12.8452  -14.9388 O   0  0  0  0  0  0
   -4.8540  -10.2860  -15.8230 O   0  5  0  0  0  0
   -2.4540  -13.0006  -20.6230 N   0  0  0  0  0  0
   -2.0757  -12.9457  -21.9127 C   0  0  0  0  0  0
   -2.6184  -12.0276  -22.8211 C   0  0  0  0  0  0
   -3.5946  -11.1190  -22.3704 C   0  0  0  0  0  0
   -3.9368  -11.1436  -20.9976 C   0  0  0  0  0  0
   -4.2685  -10.2406  -23.3392 C   0  0  0  0  0  0
   -3.5269   -9.4205  -24.2182 C   0  0  0  0  0  0
   -4.1774   -8.6390  -25.1930 C   0  0  0  0  0  0
   -5.5800   -8.6764  -25.3047 C   0  0  0  0  0  0
   -6.3303   -9.4860  -24.4320 C   0  0  0  0  0  0
   -5.6760  -10.2574  -23.4528 C   0  0  0  0  0  0
   -4.8540  -10.2829  -20.5234 F   0  0  0  0  0  0
   -3.6540  -14.3108  -18.9468 H   0  0  0  0  0  0
   -4.4540  -14.7394  -16.6230 H   0  0  0  0  0  0
   -3.9150  -10.1638  -18.4099 H   0  0  0  0  0  0
   -5.6947  -13.7011  -14.9326 H   0  0  0  0  0  0
   -1.3434  -13.6718  -22.2335 H   0  0  0  0  0  0
   -2.3178  -12.0496  -23.8588 H   0  0  0  0  0  0
   -2.4488   -9.3965  -24.1540 H   0  0  0  0  0  0
   -3.5996   -8.0159  -25.8599 H   0  0  0  0  0  0
   -6.0799   -8.0800  -26.0540 H   0  0  0  0  0  0
   -7.4075   -9.5125  -24.5104 H   0  0  0  0  0  0
   -6.2631  -10.8809  -22.7940 H   0  0  0  0  0  0
  1 10  2  0  0  0
  1 14  1  0  0  0
  1  2  1  0  0  0
  2  3  2  0  0  0
  2  7  1  0  0  0
  3  4  1  0  0  0
  3 22  1  0  0  0
  4 23  1  0  0  0
  4  5  2  0  0  0
  5  6  1  0  0  0
  5  8  1  0  0  0
  6  7  2  0  0  0
  6  9  1  0  0  0
  7 24  1  0  0  0
  8 25  1  0  0  0
 10 11  1  0  0  0
 11 12  2  0  0  0
 11 26  1  0  0  0
 12 13  1  0  0  0
 12 27  1  0  0  0
 13 14  2  0  0  0
 13 15  1  0  0  0
 14 21  1  0  0  0
 15 16  2  0  0  0
 15 20  1  0  0  0
 16 17  1  0  0  0
 16 28  1  0  0  0
 17 18  2  0  0  0
 17 29  1  0  0  0
 18 19  1  0  0  0
 18 30  1  0  0  0
 19 20  2  0  0  0
 19 31  1  0  0  0
 20 32  1  0  0  0
M  CHG  2   2   1   9  -1
M  END
> <s_m_entry_id>
192

> <s_m_entry_name>
glide-dock_SP_comt_chembl_pv.191

> <s_m_Source_Path>
/home/csk/Desktop/cluster/DUD-E-result/comt/glide-dock_SP_comt_chembl

> <s_m_Source_File>
glide-dock_SP_comt_chembl_pv.maegz

> <i_m_Source_File_Index>
191

> <chembl_id>
CHEMBL3800198

> <chembl_pref_name>
None

> <i_lp_mmshare_version>
53161

> <i_f3d_flags>
0

> <r_lp_tautomer_probability>
0.995892618013405

> <s_lp_Force_Field>
OPLS_2005

> <r_lp_Energy>
21.142597

> <b_lp_Chiralities_Consistent>
1

> <s_lp_Variant>
CHEMBL2023_lig36-1

> <s_i_glide_gridfile>
glide-grid_3bwm

> <i_i_glide_lignum>
48

> <i_i_glide_rotatable_bonds>
3

> <r_i_docking_score>
-7.80287996820033

> <r_i_glide_ligand_efficiency>
-0.371565712771444

> <r_i_glide_ligand_efficiency_sa>
-1.02512162703909

> <r_i_glide_ligand_efficiency_ln>
-1.92924630493394

> <r_i_glide_gscore>
-7.80287996820033

> <r_i_glide_lipo>
-0.57186261391239

> <r_i_glide_hbond>
-0.0351641647523973

> <r_i_glide_metal>
-2.3

> <r_i_glide_rewards>
-2.23452857045455

> <r_i_glide_evdw>
-13.8496713638306

> <r_i_glide_ecoul>
-15.9846410751343

> <r_i_glide_erotb>
0.454112474772007

> <r_i_glide_esite>
-0.0252573643913378

> <r_i_glide_emodel>
-64.9141616225653

> <r_i_glide_energy>
-29.8343124389648

> <r_i_glide_einternal>
4.33195447921753

> <i_i_glide_confnum>
7

> <i_i_glide_posenum>
193

> <r_i_glide_eff_state_penalty>
0

> <s_user_duplicate_titles>
CHEMBL2023_lig36,CHEMBL2023_lig36,CHEMBL2023_lig36

> <s_m_subgroup_title>
glide-dock_SP_comt_chembl_pv

> <s_m_subgroupid>
glide-dock_SP_comt_chembl_pv

> <b_m_subgroup_collapsed>
1

$$$$
CHEMBL2023_lig39
                    3D
 Schrodinger Suite 2021-1.
 28 30  0  0  1  0            999 V2000
   -4.1177  -11.7902  -20.2871 C   0  0  0  0  0  0
   -4.2006  -12.0004  -18.8629 N   0  3  0  0  0  0
   -4.0540  -13.2738  -18.4109 C   0  0  0  0  0  0
   -4.3833  -13.5970  -17.0829 C   0  0  0  0  0  0
   -4.8258  -12.5795  -16.2230 C   0  0  0  0  0  0
   -4.8522  -11.2552  -16.6828 C   0  0  0  0  0  0
   -4.5335  -10.9747  -18.0344 C   0  0  0  0  0  0
   -5.2540  -12.8688  -14.9599 O   0  0  0  0  0  0
   -5.2539  -10.2860  -15.8230 O   0  5  0  0  0  0
   -4.5563  -13.0553  -21.4422 S   0  0  0  0  0  0
   -4.2782  -11.9458  -22.7402 C   0  0  0  0  0  0
   -3.8709  -10.7099  -22.3044 C   0  0  0  0  0  0
   -3.7839  -10.6390  -20.8974 N   0  0  0  0  0  0
   -3.5794   -9.5691  -23.1814 C   0  0  0  0  0  0
   -4.4169   -9.3183  -24.2903 C   0  0  0  0  0  0
   -4.0770   -8.2855  -25.1825 C   0  0  0  0  0  0
   -2.9060   -7.5465  -24.9430 C   0  0  0  0  0  0
   -2.1327   -7.8716  -23.8147 C   0  0  0  0  0  0
   -2.4541   -8.8572  -22.9472 N   0  0  0  0  0  0
   -3.7462  -14.0307  -19.1155 H   0  0  0  0  0  0
   -4.3538  -14.6234  -16.7447 H   0  0  0  0  0  0
   -4.6236   -9.9913  -18.4738 H   0  0  0  0  0  0
   -5.6764  -13.7341  -14.9686 H   0  0  0  0  0  0
   -4.4267  -12.2664  -23.7613 H   0  0  0  0  0  0
   -5.3055   -9.9080  -24.4593 H   0  0  0  0  0  0
   -4.7013   -8.0666  -26.0361 H   0  0  0  0  0  0
   -2.6095   -6.7452  -25.6035 H   0  0  0  0  0  0
   -1.2299   -7.3206  -23.5966 H   0  0  0  0  0  0
  1 10  1  0  0  0
  1 13  2  0  0  0
  1  2  1  0  0  0
  2  3  2  0  0  0
  2  7  1  0  0  0
  3  4  1  0  0  0
  3 20  1  0  0  0
  4 21  1  0  0  0
  4  5  2  0  0  0
  5  6  1  0  0  0
  5  8  1  0  0  0
  6  7  2  0  0  0
  6  9  1  0  0  0
  7 22  1  0  0  0
  8 23  1  0  0  0
 10 11  1  0  0  0
 11 12  2  0  0  0
 11 24  1  0  0  0
 12 13  1  0  0  0
 12 14  1  0  0  0
 14 15  2  0  0  0
 14 19  1  0  0  0
 15 16  1  0  0  0
 15 25  1  0  0  0
 16 17  2  0  0  0
 16 26  1  0  0  0
 17 18  1  0  0  0
 17 27  1  0  0  0
 18 19  2  0  0  0
 18 28  1  0  0  0
M  CHG  2   2   1   9  -1
M  END
> <s_m_entry_id>
195

> <s_m_entry_name>
glide-dock_SP_comt_chembl_pv.194

> <s_m_Source_Path>
/home/csk/Desktop/cluster/DUD-E-result/comt/glide-dock_SP_comt_chembl

> <s_m_Source_File>
glide-dock_SP_comt_chembl_pv.maegz

> <i_m_Source_File_Index>
194

> <chembl_id>
CHEMBL3798144

> <chembl_pref_name>
None

> <i_lp_mmshare_version>
53161

> <i_f3d_flags>
0

> <r_lp_tautomer_probability>
0.995892618013405

> <s_lp_Force_Field>
OPLS_2005

> <r_lp_Energy>
9.090012

> <b_lp_Chiralities_Consistent>
1

> <s_lp_Variant>
CHEMBL2023_lig39-1

> <s_i_glide_gridfile>
glide-grid_3bwm

> <i_i_glide_lignum>
51

> <i_i_glide_rotatable_bonds>
3

> <r_i_docking_score>
-7.79353049758784

> <r_i_glide_ligand_efficiency>
-0.410185815662518

> <r_i_glide_ligand_efficiency_sa>
-1.09454050572195

> <r_i_glide_ligand_efficiency_ln>
-1.97582737082545

> <r_i_glide_gscore>
-7.79353049758784

> <r_i_glide_lipo>
-0.552515674535009

> <r_i_glide_hbond>
-0.036068455717717

> <r_i_glide_metal>
-2.24329091590997

> <r_i_glide_rewards>
-1.85934913636364

> <r_i_glide_evdw>
-18.2336120605469

> <r_i_glide_ecoul>
-17.8471393585205

> <r_i_glide_erotb>
0.486445191743911

> <r_i_glide_esite>
0

> <r_i_glide_emodel>
-71.563116976145

> <r_i_glide_energy>
-36.0807514190674

> <r_i_glide_einternal>
2.99992847442627

> <i_i_glide_confnum>
5

> <i_i_glide_posenum>
372

> <r_i_glide_eff_state_penalty>
0

> <s_user_duplicate_titles>
CHEMBL2023_lig39,CHEMBL2023_lig39,CHEMBL2023_lig39,CHEMBL2023_lig39,CHEMBL2023_lig39

> <s_m_subgroup_title>
glide-dock_SP_comt_chembl_pv

> <s_m_subgroupid>
glide-dock_SP_comt_chembl_pv

> <b_m_subgroup_collapsed>
1

$$$$
CHEMBL2023_lig110 
                    3D
 Schrodinger Suite 2021-1.
 32 33  0  0  1  0            999 V2000
   -8.8563   -5.3131  -19.4971 C   0  0  0  0  0  0
   -8.1955   -4.1136  -19.8370 C   0  0  0  0  0  0
   -6.8247   -3.9671  -19.5447 C   0  0  0  0  0  0
   -6.1273   -5.0724  -19.0230 C   0  0  0  0  0  0
   -6.7725   -6.2672  -18.6233 C   0  0  0  0  0  0
   -8.1620   -6.3598  -18.8539 C   0  0  0  0  0  0
   -5.9535   -7.3789  -18.0618 C   0  0  0  0  0  0
   -6.3227   -8.3659  -17.2057 C   0  0  0  0  0  0
   -7.6109   -8.3593  -16.5893 C   0  0  0  0  0  0
   -8.6576   -8.2859  -16.1004 N   0  0  0  0  0  0
  -10.1676   -5.4860  -19.8230 O   0  0  0  0  0  0
   -8.8540   -3.1157  -20.4957 O   0  0  0  0  0  0
   -6.1266   -2.6806  -19.7324 N   0  3  0  0  0  0
   -6.6763   -1.6635  -19.3226 O   0  5  0  0  0  0
   -5.0034   -2.6863  -20.2230 O   0  0  0  0  0  0
   -5.4419   -9.4816  -16.8058 C   0  0  0  0  0  0
   -4.3006   -9.7832  -17.5708 N   0  0  0  0  0  0
   -5.6540  -10.2052  -15.8230 O   0  0  0  0  0  0
   -4.3461   -9.9512  -19.0209 C   0  0  0  0  0  0
   -3.2033  -10.9466  -18.8488 C   0  0  0  0  0  0
   -3.6484  -11.0820  -17.3978 C   0  0  0  0  0  0
   -5.0645   -4.9762  -18.8759 H   0  0  0  0  0  0
   -8.6930   -7.2699  -18.6230 H   0  0  0  0  0  0
   -4.9392   -7.3876  -18.4261 H   0  0  0  0  0  0
  -10.5427   -6.2538  -19.4230 H   0  0  0  0  0  0
   -9.7651   -2.9354  -20.2230 H   0  0  0  0  0  0
   -4.0540   -9.0841  -19.6082 H   0  0  0  0  0  0
   -5.2540  -10.4249  -19.3892 H   0  0  0  0  0  0
   -3.3055  -11.8576  -19.4394 H   0  0  0  0  0  0
   -2.2165  -10.4944  -18.9615 H   0  0  0  0  0  0
   -4.3393  -11.9165  -17.2532 H   0  0  0  0  0  0
   -2.8389  -11.0860  -16.6689 H   0  0  0  0  0  0
  1  2  2  0  0  0
  1  6  1  0  0  0
  1 11  1  0  0  0
  2  3  1  0  0  0
  2 12  1  0  0  0
  3  4  2  0  0  0
  3 13  1  0  0  0
  4  5  1  0  0  0
  4 22  1  0  0  0
  5  6  2  0  0  0
  5  7  1  0  0  0
  6 23  1  0  0  0
  7  8  2  0  0  0
  7 24  1  0  0  0
  8  9  1  0  0  0
  8 16  1  0  0  0
  9 10  3  0  0  0
 11 25  1  0  0  0
 12 26  1  0  0  0
 13 14  1  0  0  0
 13 15  2  0  0  0
 16 17  1  0  0  0
 16 18  2  0  0  0
 17 19  1  0  0  0
 17 21  1  0  0  0
 19 20  1  0  0  0
 19 27  1  0  0  0
 19 28  1  0  0  0
 20 21  1  0  0  0
 20 29  1  0  0  0
 20 30  1  0  0  0
 21 31  1  0  0  0
 21 32  1  0  0  0
M  CHG  2  13   1  14  -1
M  END
> <s_m_entry_id>
199

> <s_m_entry_name>
glide-dock_SP_comt_chembl_pv.198

> <s_m_Source_Path>
/home/csk/Desktop/cluster/DUD-E-result/comt/glide-dock_SP_comt_chembl

> <s_m_Source_File>
glide-dock_SP_comt_chembl_pv.maegz

> <i_m_Source_File_Index>
198

> <chembl_id>
CHEMBL4464343

> <chembl_pref_name>
None

> <i_lp_mmshare_version>
53161

> <i_f3d_flags>
0

> <r_lp_tautomer_probability>
1

> <s_lp_Force_Field>
OPLS_2005

> <r_lp_Energy>
30.979066

> <b_lp_Chiralities_Consistent>
1

> <s_lp_Variant>
CHEMBL2023_lig110 -1

> <s_i_glide_gridfile>
glide-grid_3bwm

> <i_i_glide_lignum>
132

> <i_i_glide_rotatable_bonds>
6

> <r_i_docking_score>
-7.76709455286881

> <r_i_glide_ligand_efficiency>
-0.369861645374705

> <r_i_glide_ligand_efficiency_sa>
-1.02042023430481

> <r_i_glide_ligand_efficiency_ln>
-1.92039843330446

> <r_i_glide_gscore>
-7.76709455286881

> <r_i_glide_lipo>
-1.74438531711201

> <r_i_glide_hbond>
0

> <r_i_glide_metal>
-2.3

> <r_i_glide_rewards>
-0.333484829125193

> <r_i_glide_evdw>
-33.4807357788086

> <r_i_glide_ecoul>
-13.3314800262451

> <r_i_glide_erotb>
0.435222158237565

> <r_i_glide_esite>
-0.150687771991977

> <r_i_glide_emodel>
-70.2044553606835

> <r_i_glide_energy>
-46.8122158050537

> <r_i_glide_einternal>
4.97852039337158

> <i_i_glide_confnum>
7

> <i_i_glide_posenum>
5

> <r_i_glide_eff_state_penalty>
0

> <s_user_duplicate_titles>
CHEMBL2023_lig110 

> <s_m_subgroup_title>
glide-dock_SP_comt_chembl_pv

> <s_m_subgroupid>
glide-dock_SP_comt_chembl_pv

> <b_m_subgroup_collapsed>
1

$$$$
CHEMBL2023_lig16
                    3D
 Schrodinger Suite 2021-1.
 36 38  0  0  1  0            999 V2000
   -4.6437  -11.2951  -16.7053 C   0  0  0  0  0  0
   -4.2730  -11.0649  -18.0565 C   0  0  0  0  0  0
   -4.3942  -13.6709  -17.1041 C   0  0  0  0  0  0
   -4.7638  -12.6151  -16.2523 C   0  0  0  0  0  0
   -3.9839  -13.4077  -18.4282 C   0  0  0  0  0  0
   -3.9754  -12.1161  -18.8762 N   0  3  0  0  0  0
   -5.2540  -12.8593  -15.0018 O   0  0  0  0  0  0
   -4.9082  -10.2860  -15.8230 O   0  5  0  0  0  0
   -3.6763  -11.8407  -20.2713 C   0  0  0  0  0  0
   -4.6779  -11.3453  -21.1244 C   0  0  0  0  0  0
   -4.4334  -11.0902  -22.4943 C   0  0  0  0  0  0
   -3.1408  -11.3317  -23.0035 C   0  0  0  0  0  0
   -2.1355  -11.8557  -22.1736 C   0  0  0  0  0  0
   -2.4134  -12.1220  -20.8216 C   0  0  0  0  0  0
   -5.5012  -10.6041  -23.3850 C   0  0  0  0  0  0
   -5.2926   -9.4860  -24.2230 C   0  0  0  0  0  0
   -6.3184   -9.0166  -25.0663 C   0  0  0  0  0  0
   -7.5683   -9.6622  -25.0825 C   0  0  0  0  0  0
   -7.7862  -10.7832  -24.2610 C   0  0  0  0  0  0
   -6.7560  -11.2521  -23.4230 C   0  0  0  0  0  0
   -3.6014  -14.5759  -19.3295 C   0  0  0  0  0  0
   -4.2118  -10.0780  -18.4928 H   0  0  0  0  0  0
   -4.4540  -14.6883  -16.7452 H   0  0  0  0  0  0
   -5.6957  -13.7149  -15.0083 H   0  0  0  0  0  0
   -5.6540  -11.1817  -20.7189 H   0  0  0  0  0  0
   -2.9259  -11.1466  -24.0463 H   0  0  0  0  0  0
   -1.1576  -12.0712  -22.5797 H   0  0  0  0  0  0
   -1.6540  -12.5709  -20.2230 H   0  0  0  0  0  0
   -4.3427   -8.9716  -24.2116 H   0  0  0  0  0  0
   -6.1480   -8.1548  -25.6949 H   0  0  0  0  0  0
   -8.3583   -9.2978  -25.7230 H   0  0  0  0  0  0
   -8.7453  -11.2795  -24.2705 H   0  0  0  0  0  0
   -6.9379  -12.1105  -22.7933 H   0  0  0  0  0  0
   -3.9273  -15.5211  -18.8935 H   0  0  0  0  0  0
   -2.5186  -14.6305  -19.4432 H   0  0  0  0  0  0
   -4.0540  -14.4968  -20.3181 H   0  0  0  0  0  0
  1  2  2  0  0  0
  1  8  1  0  0  0
  1  4  1  0  0  0
  2  6  1  0  0  0
  2 22  1  0  0  0
  3 23  1  0  0  0
  3  5  1  0  0  0
  3  4  2  0  0  0
  4  7  1  0  0  0
  5 21  1  0  0  0
  5  6  2  0  0  0
  6  9  1  0  0  0
  7 24  1  0  0  0
  9 10  2  0  0  0
  9 14  1  0  0  0
 10 11  1  0  0  0
 10 25  1  0  0  0
 11 12  2  0  0  0
 11 15  1  0  0  0
 12 13  1  0  0  0
 12 26  1  0  0  0
 13 14  2  0  0  0
 13 27  1  0  0  0
 14 28  1  0  0  0
 15 16  2  0  0  0
 15 20  1  0  0  0
 16 17  1  0  0  0
 16 29  1  0  0  0
 17 18  2  0  0  0
 17 30  1  0  0  0
 18 19  1  0  0  0
 18 31  1  0  0  0
 19 20  2  0  0  0
 19 32  1  0  0  0
 20 33  1  0  0  0
 21 34  1  0  0  0
 21 35  1  0  0  0
 21 36  1  0  0  0
M  CHG  2   6   1   8  -1
M  END
> <s_m_entry_id>
201

> <s_m_entry_name>
glide-dock_SP_comt_chembl_pv.200

> <s_m_Source_Path>
/home/csk/Desktop/cluster/DUD-E-result/comt/glide-dock_SP_comt_chembl

> <s_m_Source_File>
glide-dock_SP_comt_chembl_pv.maegz

> <i_m_Source_File_Index>
200

> <chembl_id>
CHEMBL3425735

> <chembl_pref_name>
None

> <i_lp_mmshare_version>
53161

> <i_f3d_flags>
0

> <r_lp_tautomer_probability>
0.995892618013405

> <s_lp_Force_Field>
OPLS_2005

> <r_lp_Energy>
25.260675

> <b_lp_Chiralities_Consistent>
1

> <s_lp_Variant>
CHEMBL2023_lig16-1

> <s_i_glide_gridfile>
glide-grid_3bwm

> <i_i_glide_lignum>
25

> <i_i_glide_rotatable_bonds>
3

> <r_i_docking_score>
-7.76418143251536

> <r_i_glide_ligand_efficiency>
-0.369722925357874

> <r_i_glide_ligand_efficiency_sa>
-1.02003751629702

> <r_i_glide_ligand_efficiency_ln>
-1.91967817018359

> <r_i_glide_gscore>
-7.76418143251536

> <r_i_glide_lipo>
-0.675297867448206

> <r_i_glide_hbond>
-0.0121323591028338

> <r_i_glide_metal>
-2.17268868780936

> <r_i_glide_rewards>
-2.26829181818182

> <r_i_glide_evdw>
-13.9364557266235

> <r_i_glide_ecoul>
-16.0482368469238

> <r_i_glide_erotb>
0.468287613396608

> <r_i_glide_esite>
0

> <r_i_glide_emodel>
-65.2662095643118

> <r_i_glide_energy>
-29.9846925735474

> <r_i_glide_einternal>
1.580894947052

> <i_i_glide_confnum>
8

> <i_i_glide_posenum>
37

> <r_i_glide_eff_state_penalty>
0

> <s_user_duplicate_titles>
CHEMBL2023_lig16,CHEMBL2023_lig16,CHEMBL2023_lig16,CHEMBL2023_lig16

> <s_m_subgroup_title>
glide-dock_SP_comt_chembl_pv

> <s_m_subgroupid>
glide-dock_SP_comt_chembl_pv

> <b_m_subgroup_collapsed>
1

$$$$
CHEMBL2023_lig127
                    3D
 Schrodinger Suite 2021-1.
 22 23  0  0  1  0            999 V2000
   -8.3271   -6.9803  -16.6021 C   0  0  0  0  0  0
   -8.8527   -5.8877  -17.1375 N   0  0  0  0  0  0
   -8.2142   -5.7232  -18.3109 N   0  0  0  0  0  0
   -7.2513   -6.6899  -18.5114 C   0  0  0  0  0  0
   -7.2840   -7.5129  -17.4230 C   0  0  0  0  0  0
   -8.5769   -4.6094  -19.1603 C   0  0  0  0  0  0
   -6.3722   -8.6251  -17.1289 C   0  0  0  0  0  0
   -6.4792   -9.3908  -15.9903 N   0  0  0  0  0  0
   -5.4790  -10.2870  -15.8238 N   0  0  0  0  0  0
   -4.7705  -10.1270  -16.9394 C   0  0  0  0  0  0
   -5.2616   -9.0850  -17.7789 C   0  0  0  0  0  0
   -8.8378   -7.4408  -15.2635 C   0  0  0  0  0  0
   -6.6248   -6.6863  -19.3881 H   0  0  0  0  0  0
   -7.9746   -4.6175  -20.0690 H   0  0  0  0  0  0
   -8.4106   -3.6733  -18.6279 H   0  0  0  0  0  0
   -9.6329   -4.6777  -19.4262 H   0  0  0  0  0  0
   -7.2212   -9.2686  -15.3111 H   0  0  0  0  0  0
   -3.9033  -10.7523  -17.0954 H   0  0  0  0  0  0
   -4.8519   -8.7240  -18.7080 H   0  0  0  0  0  0
   -9.1912   -8.4715  -15.3060 H   0  0  0  0  0  0
   -8.0560   -7.3828  -14.5064 H   0  0  0  0  0  0
   -9.6696   -6.8237  -14.9197 H   0  0  0  0  0  0
  1  2  2  0  0  0
  1  5  1  0  0  0
  1 12  1  0  0  0
  2  3  1  0  0  0
  3  4  1  0  0  0
  3  6  1  0  0  0
  4  5  2  0  0  0
  4 13  1  0  0  0
  5  7  1  0  0  0
  6 14  1  0  0  0
  6 15  1  0  0  0
  6 16  1  0  0  0
  7  8  1  0  0  0
  7 11  2  0  0  0
  8  9  1  0  0  0
  8 17  1  0  0  0
  9 10  2  0  0  0
 10 18  1  0  0  0
 10 11  1  0  0  0
 11 19  1  0  0  0
 12 20  1  0  0  0
 12 21  1  0  0  0
 12 22  1  0  0  0
M  END
> <s_m_entry_id>
205

> <s_m_entry_name>
glide-dock_SP_comt_chembl_pv.204

> <s_m_Source_Path>
/home/csk/Desktop/cluster/DUD-E-result/comt/glide-dock_SP_comt_chembl

> <s_m_Source_File>
glide-dock_SP_comt_chembl_pv.maegz

> <i_m_Source_File_Index>
204

> <chembl_id>
CHEMBL3289430

> <chembl_pref_name>
None

> <i_lp_mmshare_version>
53161

> <i_f3d_flags>
0

> <r_lp_tautomer_probability>
0.5

> <s_lp_Force_Field>
OPLS_2005

> <r_lp_Energy>
0.275035

> <b_lp_Chiralities_Consistent>
1

> <s_lp_Variant>
CHEMBL2023_lig127-2

> <s_i_glide_gridfile>
glide-grid_3bwm

> <i_i_glide_lignum>
153

> <i_i_glide_rotatable_bonds>
1

> <r_i_docking_score>
-7.75696576290522

> <r_i_glide_ligand_efficiency>
-0.646413813575435

> <r_i_glide_ligand_efficiency_sa>
-1.47991819674021

> <r_i_glide_ligand_efficiency_ln>
-2.22587476292288

> <r_i_glide_gscore>
-7.75696576290522

> <r_i_glide_lipo>
-1.0017581170819

> <r_i_glide_hbond>
-0.00857187128871175

> <r_i_glide_metal>
-2.3

> <r_i_glide_rewards>
-2.25

> <r_i_glide_evdw>
-21.7013816833496

> <r_i_glide_ecoul>
-10.584623336792

> <r_i_glide_erotb>
0.576126810151669

> <r_i_glide_esite>
-0.1

> <r_i_glide_emodel>
-51.6254159277661

> <r_i_glide_energy>
-32.2860050201416

> <r_i_glide_einternal>
0.0416737534105778

> <i_i_glide_confnum>
2

> <i_i_glide_posenum>
124

> <r_i_glide_eff_state_penalty>
0

> <s_user_duplicate_titles>
CHEMBL2023_lig127,CHEMBL2023_lig127,CHEMBL2023_lig127,CHEMBL2023_lig127,CHEMBL2023_lig127,CHEMBL2023_lig127,CHEMBL2023_lig127

> <s_m_subgroup_title>
glide-dock_SP_comt_chembl_pv

> <s_m_subgroupid>
glide-dock_SP_comt_chembl_pv

> <b_m_subgroup_collapsed>
1

$$$$
CHEMBL2023_lig75
                    3D
 Schrodinger Suite 2021-1.
 33 35  0  0  1  0            999 V2000
   -1.4059  -10.5110  -20.6614 O   0  0  0  0  0  0
   -2.8635  -10.6337  -20.7976 S   0  0  0  0  0  0
   -3.6540   -9.4862  -21.2465 O   0  0  0  0  0  0
   -3.8574  -13.2568  -17.8915 C   0  0  0  0  0  0
   -3.3955  -12.6417  -19.0492 C   0  0  0  0  0  0
   -3.5156  -11.2613  -19.2299 C   0  0  0  0  0  0
   -4.4431  -12.5023  -16.8567 C   0  0  0  0  0  0
   -4.6203  -11.1147  -17.0229 C   0  0  0  0  0  0
   -4.1429  -10.4830  -18.2132 C   0  0  0  0  0  0
   -4.3289   -9.0881  -18.3180 C   0  0  0  0  0  0
   -5.0583   -8.4123  -17.3280 C   0  0  0  0  0  0
   -5.5284   -9.1372  -16.2231 C   0  0  0  0  0  0
   -5.2527  -10.4374  -16.0270 N   0  0  0  0  0  0
   -4.8543  -13.0861  -15.6868 O   0  0  0  0  0  0
   -3.1751  -11.8894  -21.9502 N   0  0  0  0  0  0
   -3.6589  -14.9494  -17.8240 Cl  0  0  0  0  0  0
   -2.1840  -12.9024  -22.3393 C   0  0  0  0  0  0
   -3.0006  -13.9923  -23.0439 C   0  0  0  0  0  0
   -4.4137  -13.8304  -22.4824 C   0  0  0  0  0  0
   -4.5399  -12.3216  -22.2590 C   0  0  0  0  0  0
   -2.9417  -13.2674  -19.7958 H   0  0  0  0  0  0
   -3.9551   -8.5206  -19.1487 H   0  0  0  0  0  0
   -5.2614   -7.3533  -17.4087 H   0  0  0  0  0  0
   -6.1173   -8.6860  -15.4419 H   0  0  0  0  0  0
   -5.3694  -13.8940  -15.8230 H   0  0  0  0  0  0
   -1.6584  -13.2908  -21.4676 H   0  0  0  0  0  0
   -1.4368  -12.4671  -23.0052 H   0  0  0  0  0  0
   -2.5939  -14.9917  -22.8953 H   0  0  0  0  0  0
   -3.0124  -13.7956  -24.1155 H   0  0  0  0  0  0
   -5.1834  -14.2242  -23.1461 H   0  0  0  0  0  0
   -4.4958  -14.3553  -21.5294 H   0  0  0  0  0  0
   -4.8765  -11.8136  -23.1637 H   0  0  0  0  0  0
   -5.2318  -12.0763  -21.4506 H   0  0  0  0  0  0
  1  2  2  0  0  0
  2  3  2  0  0  0
  2  6  1  0  0  0
  2 15  1  0  0  0
  4  5  2  0  0  0
  4  7  1  0  0  0
  4 16  1  0  0  0
  5  6  1  0  0  0
  5 21  1  0  0  0
  6  9  2  0  0  0
  7  8  2  0  0  0
  7 14  1  0  0  0
  8  9  1  0  0  0
  8 13  1  0  0  0
  9 10  1  0  0  0
 10 11  2  0  0  0
 10 22  1  0  0  0
 11 12  1  0  0  0
 11 23  1  0  0  0
 12 13  2  0  0  0
 12 24  1  0  0  0
 14 25  1  0  0  0
 15 17  1  0  0  0
 15 20  1  0  0  0
 17 18  1  0  0  0
 17 26  1  0  0  0
 17 27  1  0  0  0
 18 19  1  0  0  0
 18 28  1  0  0  0
 18 29  1  0  0  0
 19 20  1  0  0  0
 19 30  1  0  0  0
 19 31  1  0  0  0
 20 32  1  0  0  0
 20 33  1  0  0  0
M  END
> <s_m_entry_id>
206

> <s_m_entry_name>
glide-dock_SP_comt_chembl_pv.205

> <s_m_Source_Path>
/home/csk/Desktop/cluster/DUD-E-result/comt/glide-dock_SP_comt_chembl

> <s_m_Source_File>
glide-dock_SP_comt_chembl_pv.maegz

> <i_m_Source_File_Index>
205

> <chembl_id>
CHEMBL4163421

> <chembl_pref_name>
None

> <i_lp_mmshare_version>
53161

> <i_f3d_flags>
0

> <r_lp_tautomer_probability>
1

> <s_lp_Force_Field>
OPLS_2005

> <r_lp_Energy>
16.049756

> <b_lp_Chiralities_Consistent>
1

> <s_lp_Variant>
CHEMBL2023_lig75-1

> <s_i_glide_gridfile>
glide-grid_3bwm

> <i_i_glide_lignum>
97

> <i_i_glide_rotatable_bonds>
3

> <r_i_docking_score>
-7.75570507685273

> <r_i_glide_ligand_efficiency>
-0.387785253842636

> <r_i_glide_ligand_efficiency_sa>
-1.05261112343507

> <r_i_glide_ligand_efficiency_ln>
-1.94099718046285

> <r_i_glide_gscore>
-7.75570507685273

> <r_i_glide_lipo>
-0.822873222161836

> <r_i_glide_hbond>
-0.33161161544049

> <r_i_glide_metal>
-2.3

> <r_i_glide_rewards>
-0.849389314674838

> <r_i_glide_evdw>
-18.4245567321777

> <r_i_glide_ecoul>
-19.0486106872559

> <r_i_glide_erotb>
0.379539053288052

> <r_i_glide_esite>
-0.0528505381663504

> <r_i_glide_emodel>
-55.3996765329756

> <r_i_glide_energy>
-37.4731674194336

> <r_i_glide_einternal>
7.81660413742065

> <i_i_glide_confnum>
35

> <i_i_glide_posenum>
188

> <r_i_glide_eff_state_penalty>
0

> <s_user_duplicate_titles>
CHEMBL2023_lig75,CHEMBL2023_lig75,CHEMBL2023_lig75,CHEMBL2023_lig75

> <s_m_subgroup_title>
glide-dock_SP_comt_chembl_pv

> <s_m_subgroupid>
glide-dock_SP_comt_chembl_pv

> <b_m_subgroup_collapsed>
1

$$$$
CHEMBL2023_lig101 
                    3D
 Schrodinger Suite 2021-1.
 35 37  0  0  1  0            999 V2000
   -4.8540  -12.4290  -16.0765 C   0  0  0  0  0  0
   -4.3943  -13.4860  -16.8820 C   0  0  0  0  0  0
   -4.4733  -10.9189  -17.9449 C   0  0  0  0  0  0
   -4.8586  -11.1257  -16.6081 C   0  0  0  0  0  0
   -4.0658  -12.0247  -18.7196 C   0  0  0  0  0  0
   -4.0074  -13.2668  -18.1606 N   0  3  0  0  0  0
   -3.4833  -14.4106  -18.9341 C   0  0  0  0  0  0
   -3.6540  -14.2224  -20.4482 C   0  0  0  0  0  0
   -3.0916  -12.9405  -20.8492 N   0  0  2  0  0  0
   -3.8236  -11.8509  -20.2091 C   0  0  0  0  0  0
   -5.2540  -10.0867  -15.8230 O   0  0  0  0  0  0
   -5.2540  -12.6860  -14.7951 O   0  5  0  0  0  0
   -3.0661  -12.7850  -22.3120 C   0  0  0  0  0  0
   -4.4314  -12.8277  -23.0070 C   0  0  0  0  0  0
   -5.1502  -11.6448  -23.3169 C   0  0  0  0  0  0
   -6.4474  -11.7299  -23.8615 C   0  0  0  0  0  0
   -7.0295  -12.9849  -24.1204 C   0  0  0  0  0  0
   -6.2996  -14.1604  -23.8676 C   0  0  0  0  0  0
   -5.0051  -14.0803  -23.3216 C   0  0  0  0  0  0
   -4.4806  -10.0786  -23.0230 Cl  0  0  0  0  0  0
   -8.6373  -13.0860  -24.7391 Cl  0  0  0  0  0  0
   -4.3490  -14.5054  -16.5253 H   0  0  0  0  0  0
   -4.5294   -9.9353  -18.3892 H   0  0  0  0  0  0
   -4.0010  -15.3126  -18.6037 H   0  0  0  0  0  0
   -2.4350  -14.5152  -18.6654 H   0  0  0  0  0  0
   -4.7112  -14.2709  -20.7081 H   0  0  0  0  0  0
   -3.1469  -15.0308  -20.9764 H   0  0  0  0  0  0
   -3.2922  -10.9141  -20.3816 H   0  0  0  0  0  0
   -4.8123  -11.7433  -20.6548 H   0  0  0  0  0  0
   -5.4952   -9.2992  -16.2975 H   0  0  0  0  0  0
   -2.4453  -13.5777  -22.7319 H   0  0  0  0  0  0
   -2.5502  -11.8575  -22.5611 H   0  0  0  0  0  0
   -7.0023  -10.8268  -24.0705 H   0  0  0  0  0  0
   -6.7357  -15.1258  -24.0789 H   0  0  0  0  0  0
   -4.4634  -14.9921  -23.1158 H   0  0  0  0  0  0
  1  2  2  0  0  0
  1 12  1  0  0  0
  1  4  1  0  0  0
  2  6  1  0  0  0
  2 22  1  0  0  0
  3 23  1  0  0  0
  3  5  1  0  0  0
  3  4  2  0  0  0
  4 11  1  0  0  0
  5 10  1  0  0  0
  5  6  2  0  0  0
  6  7  1  0  0  0
  7  8  1  0  0  0
  7 24  1  0  0  0
  7 25  1  0  0  0
  8  9  1  0  0  0
  8 26  1  0  0  0
  8 27  1  0  0  0
  9 10  1  0  0  0
  9 13  1  0  0  0
 10 28  1  0  0  0
 10 29  1  0  0  0
 11 30  1  0  0  0
 13 14  1  0  0  0
 13 31  1  0  0  0
 13 32  1  0  0  0
 14 15  2  0  0  0
 14 19  1  0  0  0
 15 16  1  0  0  0
 15 20  1  0  0  0
 16 17  2  0  0  0
 16 33  1  0  0  0
 17 18  1  0  0  0
 17 21  1  0  0  0
 18 19  2  0  0  0
 18 34  1  0  0  0
 19 35  1  0  0  0
M  CHG  2   6   1  12  -1
M  END
> <s_m_entry_id>
207

> <s_m_entry_name>
glide-dock_SP_comt_chembl_pv.206

> <s_m_Source_Path>
/home/csk/Desktop/cluster/DUD-E-result/comt/glide-dock_SP_comt_chembl

> <s_m_Source_File>
glide-dock_SP_comt_chembl_pv.maegz

> <i_m_Source_File_Index>
206

> <chembl_id>
CHEMBL4461693

> <chembl_pref_name>
None

> <i_lp_mmshare_version>
53161

> <i_f3d_flags>
0

> <r_lp_tautomer_probability>
0.995892618013405

> <s_lp_Force_Field>
OPLS_2005

> <r_lp_Energy>
16.757886

> <b_lp_Chiralities_Consistent>
1

> <s_lp_Variant>
CHEMBL2023_lig101 -1

> <s_i_glide_gridfile>
glide-grid_3bwm

> <i_i_glide_lignum>
123

> <i_i_glide_rotatable_bonds>
3

> <r_i_docking_score>
-7.75319529424211

> <r_i_glide_ligand_efficiency>
-0.369199775916291

> <r_i_glide_ligand_efficiency_sa>
-1.01859418665624

> <r_i_glide_ligand_efficiency_ln>
-1.91696186969511

> <r_i_glide_gscore>
-7.75319529424211

> <r_i_glide_lipo>
-0.559456944078533

> <r_i_glide_hbond>
-0.122691493309425

> <r_i_glide_metal>
-2.3

> <r_i_glide_rewards>
-1.94189140909091

> <r_i_glide_evdw>
-19.260763168335

> <r_i_glide_ecoul>
-14.8033609390259

> <r_i_glide_erotb>
0.354386851507381

> <r_i_glide_esite>
0

> <r_i_glide_emodel>
-69.119753394765

> <r_i_glide_energy>
-34.0641241073608

> <r_i_glide_einternal>
4.09140586853027

> <i_i_glide_confnum>
5

> <i_i_glide_posenum>
346

> <r_i_glide_eff_state_penalty>
0

> <s_user_duplicate_titles>
CHEMBL2023_lig101 ,CHEMBL2023_lig101 ,CHEMBL2023_lig101 ,CHEMBL2023_lig101 ,CHEMBL2023_lig101 

> <s_m_subgroup_title>
glide-dock_SP_comt_chembl_pv

> <s_m_subgroupid>
glide-dock_SP_comt_chembl_pv

> <b_m_subgroup_collapsed>
1

$$$$
CHEMBL2023_lig87 
                    3D
 Schrodinger Suite 2021-1.
 36 38  0  0  1  0            999 V2000
   -4.8540  -12.4274  -16.0957 C   0  0  0  0  0  0
   -4.4016  -13.4858  -16.9044 C   0  0  0  0  0  0
   -4.4536  -10.9093  -17.9526 C   0  0  0  0  0  0
   -4.8576  -11.1226  -16.6225 C   0  0  0  0  0  0
   -4.0248  -12.0122  -18.7242 C   0  0  0  0  0  0
   -3.9968  -13.2614  -18.1758 N   0  3  0  0  0  0
   -3.4788  -14.4103  -18.9497 C   0  0  0  0  0  0
   -3.5309  -14.1690  -20.4645 C   0  0  0  0  0  0
   -2.8534  -12.9116  -20.7431 N   0  0  2  0  0  0
   -3.6622  -11.8274  -20.1895 C   0  0  0  0  0  0
   -5.2543  -10.0911  -15.8231 O   0  0  0  0  0  0
   -5.2540  -12.6860  -14.8144 O   0  5  0  0  0  0
   -2.7089  -12.7628  -22.1898 C   0  0  0  0  0  0
   -1.8508  -11.5741  -22.6051 C   0  0  0  0  0  0
   -2.3980  -10.3959  -23.1813 C   0  0  0  0  0  0
   -1.5349   -9.3595  -23.5950 C   0  0  0  0  0  0
   -0.1427   -9.4800  -23.4235 C   0  0  0  0  0  0
    0.3972  -10.6325  -22.8266 C   0  0  0  0  0  0
   -0.4551  -11.6750  -22.4214 C   0  0  0  0  0  0
   -3.8331  -10.2178  -23.3571 C   0  0  0  0  0  0
   -4.9727  -10.0781  -23.4923 N   0  0  0  0  0  0
   -4.3660  -14.5073  -16.5528 H   0  0  0  0  0  0
   -4.4862   -9.9209  -18.3894 H   0  0  0  0  0  0
   -4.0539  -15.2980  -18.6766 H   0  0  0  0  0  0
   -2.4539  -14.5720  -18.6233 H   0  0  0  0  0  0
   -4.5597  -14.1435  -20.8295 H   0  0  0  0  0  0
   -3.0272  -14.9904  -20.9758 H   0  0  0  0  0  0
   -3.1196  -10.8870  -20.2939 H   0  0  0  0  0  0
   -4.5929  -11.7215  -20.7515 H   0  0  0  0  0  0
   -5.4968   -9.2995  -16.2937 H   0  0  0  0  0  0
   -3.6865  -12.7435  -22.6724 H   0  0  0  0  0  0
   -2.2115  -13.6520  -22.5809 H   0  0  0  0  0  0
   -1.9370   -8.4635  -24.0468 H   0  0  0  0  0  0
    0.5129   -8.6828  -23.7442 H   0  0  0  0  0  0
    1.4657  -10.7201  -22.6875 H   0  0  0  0  0  0
   -0.0321  -12.5617  -21.9709 H   0  0  0  0  0  0
  1  2  2  0  0  0
  1 12  1  0  0  0
  1  4  1  0  0  0
  2  6  1  0  0  0
  2 22  1  0  0  0
  3 23  1  0  0  0
  3  5  1  0  0  0
  3  4  2  0  0  0
  4 11  1  0  0  0
  5 10  1  0  0  0
  5  6  2  0  0  0
  6  7  1  0  0  0
  7  8  1  0  0  0
  7 24  1  0  0  0
  7 25  1  0  0  0
  8  9  1  0  0  0
  8 26  1  0  0  0
  8 27  1  0  0  0
  9 10  1  0  0  0
  9 13  1  0  0  0
 10 28  1  0  0  0
 10 29  1  0  0  0
 11 30  1  0  0  0
 13 14  1  0  0  0
 13 31  1  0  0  0
 13 32  1  0  0  0
 14 15  2  0  0  0
 14 19  1  0  0  0
 15 16  1  0  0  0
 15 20  1  0  0  0
 16 17  2  0  0  0
 16 33  1  0  0  0
 17 18  1  0  0  0
 17 34  1  0  0  0
 18 19  2  0  0  0
 18 35  1  0  0  0
 19 36  1  0  0  0
 20 21  3  0  0  0
M  CHG  2   6   1  12  -1
M  END
> <s_m_entry_id>
223

> <s_m_entry_name>
glide-dock_SP_comt_chembl_pv.222

> <s_m_Source_Path>
/home/csk/Desktop/cluster/DUD-E-result/comt/glide-dock_SP_comt_chembl

> <s_m_Source_File>
glide-dock_SP_comt_chembl_pv.maegz

> <i_m_Source_File_Index>
222

> <chembl_id>
CHEMBL4587566

> <chembl_pref_name>
None

> <i_lp_mmshare_version>
53161

> <i_f3d_flags>
0

> <r_lp_tautomer_probability>
0.995892618013405

> <s_lp_Force_Field>
OPLS_2005

> <r_lp_Energy>
17.103883

> <b_lp_Chiralities_Consistent>
1

> <s_lp_Variant>
CHEMBL2023_lig87 -1

> <s_i_glide_gridfile>
glide-grid_3bwm

> <i_i_glide_lignum>
109

> <i_i_glide_rotatable_bonds>
3

> <r_i_docking_score>
-7.69801860694769

> <r_i_glide_ligand_efficiency>
-0.366572314616557

> <r_i_glide_ligand_efficiency_sa>
-1.01134522016125

> <r_i_glide_ligand_efficiency_ln>
-1.90331954525656

> <r_i_glide_gscore>
-7.69801860694769

> <r_i_glide_lipo>
-0.459522270629279

> <r_i_glide_hbond>
-0.122486676532982

> <r_i_glide_metal>
-2.3

> <r_i_glide_rewards>
-2.24107363636364

> <r_i_glide_evdw>
-18.2557220458984

> <r_i_glide_ecoul>
-14.1263942718506

> <r_i_glide_erotb>
0.456809219650713

> <r_i_glide_esite>
0

> <r_i_glide_emodel>
-67.9781756559242

> <r_i_glide_energy>
-32.382116317749

> <r_i_glide_einternal>
2.51792240142822

> <i_i_glide_confnum>
4

> <i_i_glide_posenum>
373

> <r_i_glide_eff_state_penalty>
0

> <s_user_duplicate_titles>
CHEMBL2023_lig87 ,CHEMBL2023_lig87 ,CHEMBL2023_lig87 ,CHEMBL2023_lig87 ,CHEMBL2023_lig87 

> <s_m_subgroup_title>
glide-dock_SP_comt_chembl_pv

> <s_m_subgroupid>
glide-dock_SP_comt_chembl_pv

> <b_m_subgroup_collapsed>
1

$$$$
CHEMBL2023_lig21
                    3D
 Schrodinger Suite 2021-1.
 32 33  0  0  1  0            999 V2000
   -4.5966  -11.1218  -16.7083 C   0  0  0  0  0  0
   -4.1716  -10.8305  -18.0289 C   0  0  0  0  0  0
   -4.4540  -13.4864  -17.1720 C   0  0  0  0  0  0
   -4.7715  -12.4457  -16.2815 C   0  0  0  0  0  0
   -4.0540  -13.1692  -18.4840 C   0  0  0  0  0  0
   -3.9577  -11.8755  -18.8884 N   0  3  0  0  0  0
   -5.2540  -12.6956  -15.0230 O   0  0  0  0  0  0
   -4.8680  -10.1362  -15.8230 O   0  5  0  0  0  0
   -3.6224  -11.6630  -20.2830 C   0  0  0  0  0  0
   -4.3969  -10.8062  -21.0966 C   0  0  0  0  0  0
   -4.0597  -10.6103  -22.4510 C   0  0  0  0  0  0
   -2.9527  -11.2855  -23.0024 C   0  0  0  0  0  0
   -2.1950  -12.1695  -22.2086 C   0  0  0  0  0  0
   -2.5377  -12.3614  -20.8558 C   0  0  0  0  0  0
   -3.9535   -9.3787  -18.4552 C   0  0  0  0  0  0
   -4.8815   -9.6756  -23.3146 C   0  0  0  0  0  0
   -1.0142  -12.9096  -22.8028 C   0  0  0  0  0  0
   -4.5591  -14.5198  -16.8746 H   0  0  0  0  0  0
   -3.8619  -13.9340  -19.2217 H   0  0  0  0  0  0
   -5.6762  -13.5604  -15.0313 H   0  0  0  0  0  0
   -5.2540  -10.2954  -20.6882 H   0  0  0  0  0  0
   -2.6919  -11.1321  -24.0401 H   0  0  0  0  0  0
   -1.9694  -13.0510  -20.2564 H   0  0  0  0  0  0
   -3.6540   -8.7568  -17.6120 H   0  0  0  0  0  0
   -3.1731   -9.2716  -19.2076 H   0  0  0  0  0  0
   -4.8844   -8.9658  -18.8399 H   0  0  0  0  0  0
   -4.3674   -8.7211  -23.4305 H   0  0  0  0  0  0
   -5.8600   -9.4861  -22.8718 H   0  0  0  0  0  0
   -5.0379  -10.1041  -24.3048 H   0  0  0  0  0  0
   -0.9480  -13.9206  -22.3994 H   0  0  0  0  0  0
   -1.1032  -12.9855  -23.8870 H   0  0  0  0  0  0
   -0.0865  -12.3856  -22.5711 H   0  0  0  0  0  0
  1  2  2  0  0  0
  1  8  1  0  0  0
  1  4  1  0  0  0
  2  6  1  0  0  0
  2 15  1  0  0  0
  3 18  1  0  0  0
  3  5  1  0  0  0
  3  4  2  0  0  0
  4  7  1  0  0  0
  5 19  1  0  0  0
  5  6  2  0  0  0
  6  9  1  0  0  0
  7 20  1  0  0  0
  9 10  2  0  0  0
  9 14  1  0  0  0
 10 11  1  0  0  0
 10 21  1  0  0  0
 11 12  2  0  0  0
 11 16  1  0  0  0
 12 13  1  0  0  0
 12 22  1  0  0  0
 13 14  2  0  0  0
 13 17  1  0  0  0
 14 23  1  0  0  0
 15 24  1  0  0  0
 15 25  1  0  0  0
 15 26  1  0  0  0
 16 27  1  0  0  0
 16 28  1  0  0  0
 16 29  1  0  0  0
 17 30  1  0  0  0
 17 31  1  0  0  0
 17 32  1  0  0  0
M  CHG  2   6   1   8  -1
M  END
> <s_m_entry_id>
225

> <s_m_entry_name>
glide-dock_SP_comt_chembl_pv.224

> <s_m_Source_Path>
/home/csk/Desktop/cluster/DUD-E-result/comt/glide-dock_SP_comt_chembl

> <s_m_Source_File>
glide-dock_SP_comt_chembl_pv.maegz

> <i_m_Source_File_Index>
224

> <chembl_id>
CHEMBL3425730

> <chembl_pref_name>
None

> <i_lp_mmshare_version>
53161

> <i_f3d_flags>
0

> <r_lp_tautomer_probability>
0.995892618013405

> <s_lp_Force_Field>
OPLS_2005

> <r_lp_Energy>
19.258424

> <b_lp_Chiralities_Consistent>
1

> <s_lp_Variant>
CHEMBL2023_lig21-1

> <s_i_glide_gridfile>
glide-grid_3bwm

> <i_i_glide_lignum>
30

> <i_i_glide_rotatable_bonds>
2

> <r_i_docking_score>
-7.69361296293037

> <r_i_glide_ligand_efficiency>
-0.452565468407669

> <r_i_glide_ligand_efficiency_sa>
-1.16367325638528

> <r_i_glide_ligand_efficiency_ln>
-2.00709229369143

> <r_i_glide_gscore>
-7.69361296293037

> <r_i_glide_lipo>
-0.559787211981917

> <r_i_glide_hbond>
-0.0586501664124294

> <r_i_glide_metal>
-2.3

> <r_i_glide_rewards>
-1.84585636363636

> <r_i_glide_evdw>
-16.3300857543945

> <r_i_glide_ecoul>
-16.2489547729492

> <r_i_glide_erotb>
0.324528282762444

> <r_i_glide_esite>
0

> <r_i_glide_emodel>
-67.7129600790182

> <r_i_glide_energy>
-32.5790405273438

> <r_i_glide_einternal>
0.923560261726379

> <i_i_glide_confnum>
1

> <i_i_glide_posenum>
300

> <r_i_glide_eff_state_penalty>
0

> <s_user_duplicate_titles>
CHEMBL2023_lig21,CHEMBL2023_lig21

> <s_m_subgroup_title>
glide-dock_SP_comt_chembl_pv

> <s_m_subgroupid>
glide-dock_SP_comt_chembl_pv

> <b_m_subgroup_collapsed>
1

$$$$
CHEMBL2023_lig81 
                    3D
 Schrodinger Suite 2021-1.
 40 41  0  0  1  0            999 V2000
   -4.8540  -12.4505  -16.0237 C   0  0  0  0  0  0
   -4.3333  -13.5068  -16.7932 C   0  0  0  0  0  0
   -4.5691  -10.9940  -17.9499 C   0  0  0  0  0  0
   -4.9097  -11.1657  -16.5944 C   0  0  0  0  0  0
   -4.1357  -12.1132  -18.6938 C   0  0  0  0  0  0
   -3.9658  -13.3200  -18.0822 N   0  3  0  0  0  0
   -3.3719  -14.4713  -18.8121 C   0  0  0  0  0  0
   -3.0359  -14.1738  -20.2877 C   0  0  0  0  0  0
   -4.0369  -13.2843  -20.8639 N   0  0  1  0  0  0
   -3.8878  -12.0001  -20.1870 C   0  0  0  0  0  0
   -5.3025  -10.1146  -15.8230 O   0  0  0  0  0  0
   -5.2540  -12.6860  -14.7375 O   0  5  0  0  0  0
   -3.8398  -13.1131  -22.3028 C   0  0  0  0  0  0
   -4.3181  -14.3509  -23.1058 C   0  0  0  0  0  0
   -3.1380  -15.0318  -23.8359 C   0  0  0  0  0  0
   -5.4993  -13.9972  -24.0403 C   0  0  0  0  0  0
   -5.1514  -13.0776  -25.2226 C   0  0  0  0  0  0
   -3.5006  -16.3555  -24.5241 C   0  0  0  0  0  0
   -4.2314  -14.5099  -16.4046 H   0  0  0  0  0  0
   -4.6719  -10.0299  -18.4274 H   0  0  0  0  0  0
   -4.0540  -15.3117  -18.7297 H   0  0  0  0  0  0
   -2.4710  -14.7688  -18.2780 H   0  0  0  0  0  0
   -2.9800  -15.1120  -20.8380 H   0  0  0  0  0  0
   -2.0540  -13.7102  -20.3682 H   0  0  0  0  0  0
   -2.8951  -11.5802  -20.3587 H   0  0  0  0  0  0
   -4.6101  -11.2933  -20.5991 H   0  0  0  0  0  0
   -5.5615   -9.3408  -16.3103 H   0  0  0  0  0  0
   -2.7969  -12.8746  -22.5192 H   0  0  0  0  0  0
   -4.4145  -12.2423  -22.6206 H   0  0  0  0  0  0
   -4.7165  -15.0852  -22.4033 H   0  0  0  0  0  0
   -2.3467  -15.2358  -23.1141 H   0  0  0  0  0  0
   -2.6989  -14.3505  -24.5652 H   0  0  0  0  0  0
   -6.2858  -13.5276  -23.4482 H   0  0  0  0  0  0
   -5.9445  -14.9136  -24.4286 H   0  0  0  0  0  0
   -6.0480  -12.8315  -25.7922 H   0  0  0  0  0  0
   -4.7073  -12.1389  -24.8925 H   0  0  0  0  0  0
   -4.4543  -13.5548  -25.9112 H   0  0  0  0  0  0
   -2.6110  -16.8283  -24.9407 H   0  0  0  0  0  0
   -3.9492  -17.0589  -23.8222 H   0  0  0  0  0  0
   -4.2017  -16.2040  -25.3447 H   0  0  0  0  0  0
  1  2  2  0  0  0
  1 12  1  0  0  0
  1  4  1  0  0  0
  2  6  1  0  0  0
  2 19  1  0  0  0
  3 20  1  0  0  0
  3  5  1  0  0  0
  3  4  2  0  0  0
  4 11  1  0  0  0
  5 10  1  0  0  0
  5  6  2  0  0  0
  6  7  1  0  0  0
  7  8  1  0  0  0
  7 21  1  0  0  0
  7 22  1  0  0  0
  8  9  1  0  0  0
  8 23  1  0  0  0
  8 24  1  0  0  0
  9 10  1  0  0  0
  9 13  1  0  0  0
 10 25  1  0  0  0
 10 26  1  0  0  0
 11 27  1  0  0  0
 13 14  1  0  0  0
 13 28  1  0  0  0
 13 29  1  0  0  0
 14 15  1  0  0  0
 14 16  1  0  0  0
 14 30  1  0  0  0
 15 18  1  0  0  0
 15 31  1  0  0  0
 15 32  1  0  0  0
 16 17  1  0  0  0
 16 33  1  0  0  0
 16 34  1  0  0  0
 17 35  1  0  0  0
 17 36  1  0  0  0
 17 37  1  0  0  0
 18 38  1  0  0  0
 18 39  1  0  0  0
 18 40  1  0  0  0
M  CHG  2   6   1  12  -1
M  END
> <s_m_entry_id>
230

> <s_m_entry_name>
glide-dock_SP_comt_chembl_pv.229

> <s_m_Source_Path>
/home/csk/Desktop/cluster/DUD-E-result/comt/glide-dock_SP_comt_chembl

> <s_m_Source_File>
glide-dock_SP_comt_chembl_pv.maegz

> <i_m_Source_File_Index>
229

> <chembl_id>
CHEMBL4551380

> <chembl_pref_name>
None

> <i_lp_mmshare_version>
53161

> <i_f3d_flags>
0

> <r_lp_tautomer_probability>
0.995892618013405

> <s_lp_Force_Field>
OPLS_2005

> <r_lp_Energy>
16.565502

> <b_lp_Chiralities_Consistent>
1

> <s_lp_Variant>
CHEMBL2023_lig81 -1

> <s_i_glide_gridfile>
glide-grid_3bwm

> <i_i_glide_lignum>
103

> <i_i_glide_rotatable_bonds>
5

> <r_i_docking_score>
-7.68257100163874

> <r_i_glide_ligand_efficiency>
-0.426809500091041

> <r_i_glide_ligand_efficiency_sa>
-1.11855732325251

> <r_i_glide_ligand_efficiency_ln>
-1.97476526145494

> <r_i_glide_gscore>
-7.68257100163874

> <r_i_glide_lipo>
-0.519837958029954

> <r_i_glide_hbond>
-0.123217807632339

> <r_i_glide_metal>
-2.3

> <r_i_glide_rewards>
-2.45224990909091

> <r_i_glide_evdw>
-12.5588645935059

> <r_i_glide_ecoul>
-14.7868766784668

> <r_i_glide_erotb>
0.558709404559778

> <r_i_glide_esite>
0

> <r_i_glide_emodel>
-59.9097117574502

> <r_i_glide_energy>
-27.3457412719727

> <r_i_glide_einternal>
5.04982709884644

> <i_i_glide_confnum>
9

> <i_i_glide_posenum>
165

> <r_i_glide_eff_state_penalty>
0

> <s_user_duplicate_titles>
CHEMBL2023_lig81 ,CHEMBL2023_lig81 ,CHEMBL2023_lig81 ,CHEMBL2023_lig81 

> <s_m_subgroup_title>
glide-dock_SP_comt_chembl_pv

> <s_m_subgroupid>
glide-dock_SP_comt_chembl_pv

> <b_m_subgroup_collapsed>
1

$$$$
CHEMBL2023_lig99 
                    3D
 Schrodinger Suite 2021-1.
 35 37  0  0  1  0            999 V2000
   -4.8540  -12.4288  -16.0977 C   0  0  0  0  0  0
   -4.4067  -13.4859  -16.9102 C   0  0  0  0  0  0
   -4.4540  -10.9082  -17.9534 C   0  0  0  0  0  0
   -4.8553  -11.1227  -16.6208 C   0  0  0  0  0  0
   -4.0248  -12.0087  -18.7276 C   0  0  0  0  0  0
   -3.9986  -13.2587  -18.1806 N   0  3  0  0  0  0
   -3.4779  -14.4059  -18.9547 C   0  0  0  0  0  0
   -3.5234  -14.1626  -20.4706 C   0  0  0  0  0  0
   -2.8446  -12.9057  -20.7443 N   0  0  2  0  0  0
   -3.6563  -11.8217  -20.1939 C   0  0  0  0  0  0
   -5.2540  -10.0921  -15.8230 O   0  0  0  0  0  0
   -5.2540  -12.6860  -14.8165 O   0  5  0  0  0  0
   -2.6864  -12.7489  -22.1893 C   0  0  0  0  0  0
   -1.8004  -11.5841  -22.5932 C   0  0  0  0  0  0
   -2.3158  -10.5223  -23.3686 C   0  0  0  0  0  0
   -1.4690   -9.4758  -23.7823 C   0  0  0  0  0  0
   -0.1070   -9.4860  -23.4230 C   0  0  0  0  0  0
    0.4066  -10.5353  -22.6369 C   0  0  0  0  0  0
   -0.4388  -11.5823  -22.2230 C   0  0  0  0  0  0
   -3.6232  -10.5038  -23.7221 F   0  0  0  0  0  0
   -4.3748  -14.5090  -16.5626 H   0  0  0  0  0  0
   -4.4854   -9.9185  -18.3865 H   0  0  0  0  0  0
   -4.0540  -15.2921  -18.6857 H   0  0  0  0  0  0
   -2.4540  -14.5681  -18.6230 H   0  0  0  0  0  0
   -4.5497  -14.1386  -20.8418 H   0  0  0  0  0  0
   -3.0139  -14.9828  -20.9784 H   0  0  0  0  0  0
   -3.1184  -10.8791  -20.3021 H   0  0  0  0  0  0
   -4.5840  -11.7220  -20.7609 H   0  0  0  0  0  0
   -5.4947   -9.2998  -16.2897 H   0  0  0  0  0  0
   -3.6622  -12.6717  -22.6716 H   0  0  0  0  0  0
   -2.2185  -13.6471  -22.5952 H   0  0  0  0  0  0
   -1.8649   -8.6679  -24.3801 H   0  0  0  0  0  0
    0.5430   -8.6846  -23.7432 H   0  0  0  0  0  0
    1.4499  -10.5391  -22.3561 H   0  0  0  0  0  0
   -0.0384  -12.3916  -21.6295 H   0  0  0  0  0  0
  1  2  2  0  0  0
  1 12  1  0  0  0
  1  4  1  0  0  0
  2  6  1  0  0  0
  2 21  1  0  0  0
  3 22  1  0  0  0
  3  5  1  0  0  0
  3  4  2  0  0  0
  4 11  1  0  0  0
  5 10  1  0  0  0
  5  6  2  0  0  0
  6  7  1  0  0  0
  7  8  1  0  0  0
  7 23  1  0  0  0
  7 24  1  0  0  0
  8  9  1  0  0  0
  8 25  1  0  0  0
  8 26  1  0  0  0
  9 10  1  0  0  0
  9 13  1  0  0  0
 10 27  1  0  0  0
 10 28  1  0  0  0
 11 29  1  0  0  0
 13 14  1  0  0  0
 13 30  1  0  0  0
 13 31  1  0  0  0
 14 15  2  0  0  0
 14 19  1  0  0  0
 15 16  1  0  0  0
 15 20  1  0  0  0
 16 17  2  0  0  0
 16 32  1  0  0  0
 17 18  1  0  0  0
 17 33  1  0  0  0
 18 19  2  0  0  0
 18 34  1  0  0  0
 19 35  1  0  0  0
M  CHG  2   6   1  12  -1
M  END
> <s_m_entry_id>
231

> <s_m_entry_name>
glide-dock_SP_comt_chembl_pv.230

> <s_m_Source_Path>
/home/csk/Desktop/cluster/DUD-E-result/comt/glide-dock_SP_comt_chembl

> <s_m_Source_File>
glide-dock_SP_comt_chembl_pv.maegz

> <i_m_Source_File_Index>
230

> <chembl_id>
CHEMBL4523002

> <chembl_pref_name>
None

> <i_lp_mmshare_version>
53161

> <i_f3d_flags>
0

> <r_lp_tautomer_probability>
0.995892618013405

> <s_lp_Force_Field>
OPLS_2005

> <r_lp_Energy>
16.48551

> <b_lp_Chiralities_Consistent>
1

> <s_lp_Variant>
CHEMBL2023_lig99 -1

> <s_i_glide_gridfile>
glide-grid_3bwm

> <i_i_glide_lignum>
121

> <i_i_glide_rotatable_bonds>
3

> <r_i_docking_score>
-7.68182069255105

> <r_i_glide_ligand_efficiency>
-0.384091034627552

> <r_i_glide_ligand_efficiency_sa>
-1.04258346972809

> <r_i_glide_ligand_efficiency_ln>
-1.92250635594223

> <r_i_glide_gscore>
-7.68182069255105

> <r_i_glide_lipo>
-0.469624537056015

> <r_i_glide_hbond>
-0.122462741621484

> <r_i_glide_metal>
-2.3

> <r_i_glide_rewards>
-2.28893043409091

> <r_i_glide_evdw>
-16.5284881591797

> <r_i_glide_ecoul>
-14.3444204330444

> <r_i_glide_erotb>
0.477284493133007

> <r_i_glide_esite>
0

> <r_i_glide_emodel>
-65.7072113818481

> <r_i_glide_energy>
-30.8729085922241

> <r_i_glide_einternal>
4.65248918533325

> <i_i_glide_confnum>
4

> <i_i_glide_posenum>
59

> <r_i_glide_eff_state_penalty>
0

> <s_user_duplicate_titles>
CHEMBL2023_lig99 ,CHEMBL2023_lig99 ,CHEMBL2023_lig99 ,CHEMBL2023_lig99 ,CHEMBL2023_lig99 

> <s_m_subgroup_title>
glide-dock_SP_comt_chembl_pv

> <s_m_subgroupid>
glide-dock_SP_comt_chembl_pv

> <b_m_subgroup_collapsed>
1

$$$$
CHEMBL2023_lig17
                    3D
 Schrodinger Suite 2021-1.
 33 35  0  0  1  0            999 V2000
   -4.8368  -11.2899  -16.6648 C   0  0  0  0  0  0
   -4.4540  -11.0453  -18.0088 C   0  0  0  0  0  0
   -4.4437  -13.6560  -17.0230 C   0  0  0  0  0  0
   -4.8515  -12.6085  -16.1829 C   0  0  0  0  0  0
   -4.0540  -13.3668  -18.3399 C   0  0  0  0  0  0
   -4.0854  -12.0891  -18.8027 N   0  3  0  0  0  0
   -5.2540  -12.8686  -14.9054 O   0  0  0  0  0  0
   -5.2072  -10.2860  -15.8230 O   0  5  0  0  0  0
   -3.6730  -11.8682  -20.1762 C   0  0  0  0  0  0
   -4.3702  -10.9932  -21.0452 C   0  0  0  0  0  0
   -3.9672  -10.8512  -22.3986 C   0  0  0  0  0  0
   -2.8324  -11.5586  -22.8508 C   0  0  0  0  0  0
   -2.1357  -12.4275  -21.9978 C   0  0  0  0  0  0
   -2.5694  -12.5939  -20.6744 C   0  0  0  0  0  0
   -4.7200  -10.0392  -23.3712 C   0  0  0  0  0  0
   -4.0540   -9.1354  -24.2306 C   0  0  0  0  0  0
   -4.7610   -8.4211  -25.2179 C   0  0  0  0  0  0
   -6.1501   -8.5981  -25.3556 C   0  0  0  0  0  0
   -6.8280   -9.4862  -24.5003 C   0  0  0  0  0  0
   -6.1147  -10.2018  -23.5182 C   0  0  0  0  0  0
   -4.4304  -10.0587  -18.4488 H   0  0  0  0  0  0
   -4.4540  -14.6778  -16.6693 H   0  0  0  0  0  0
   -3.7747  -14.1491  -19.0291 H   0  0  0  0  0  0
   -5.6675  -13.7376  -14.8911 H   0  0  0  0  0  0
   -5.2403  -10.4583  -20.6952 H   0  0  0  0  0  0
   -2.5110  -11.4655  -23.8785 H   0  0  0  0  0  0
   -1.2856  -12.9831  -22.3667 H   0  0  0  0  0  0
   -2.0540  -13.2959  -20.0442 H   0  0  0  0  0  0
   -2.9867   -8.9938  -24.1436 H   0  0  0  0  0  0
   -4.2367   -7.7369  -25.8689 H   0  0  0  0  0  0
   -6.6949   -8.0499  -26.1103 H   0  0  0  0  0  0
   -7.8949   -9.6232  -24.6000 H   0  0  0  0  0  0
   -6.6458  -10.8967  -22.8847 H   0  0  0  0  0  0
  1  2  2  0  0  0
  1  8  1  0  0  0
  1  4  1  0  0  0
  2  6  1  0  0  0
  2 21  1  0  0  0
  3 22  1  0  0  0
  3  5  1  0  0  0
  3  4  2  0  0  0
  4  7  1  0  0  0
  5 23  1  0  0  0
  5  6  2  0  0  0
  6  9  1  0  0  0
  7 24  1  0  0  0
  9 10  2  0  0  0
  9 14  1  0  0  0
 10 11  1  0  0  0
 10 25  1  0  0  0
 11 12  2  0  0  0
 11 15  1  0  0  0
 12 13  1  0  0  0
 12 26  1  0  0  0
 13 14  2  0  0  0
 13 27  1  0  0  0
 14 28  1  0  0  0
 15 16  2  0  0  0
 15 20  1  0  0  0
 16 17  1  0  0  0
 16 29  1  0  0  0
 17 18  2  0  0  0
 17 30  1  0  0  0
 18 19  1  0  0  0
 18 31  1  0  0  0
 19 20  2  0  0  0
 19 32  1  0  0  0
 20 33  1  0  0  0
M  CHG  2   6   1   8  -1
M  END
> <s_m_entry_id>
234

> <s_m_entry_name>
glide-dock_SP_comt_chembl_pv.233

> <s_m_Source_Path>
/home/csk/Desktop/cluster/DUD-E-result/comt/glide-dock_SP_comt_chembl

> <s_m_Source_File>
glide-dock_SP_comt_chembl_pv.maegz

> <i_m_Source_File_Index>
233

> <chembl_id>
CHEMBL3425734

> <chembl_pref_name>
None

> <i_lp_mmshare_version>
53161

> <i_f3d_flags>
0

> <r_lp_tautomer_probability>
0.995892618013405

> <s_lp_Force_Field>
OPLS_2005

> <r_lp_Energy>
22.23351

> <b_lp_Chiralities_Consistent>
1

> <s_lp_Variant>
CHEMBL2023_lig17-1

> <s_i_glide_gridfile>
glide-grid_3bwm

> <i_i_glide_lignum>
26

> <i_i_glide_rotatable_bonds>
3

> <r_i_docking_score>
-7.67507125871221

> <r_i_glide_ligand_efficiency>
-0.383753562935611

> <r_i_glide_ligand_efficiency_sa>
-1.0416674306233

> <r_i_glide_ligand_efficiency_ln>
-1.9208171952636

> <r_i_glide_gscore>
-7.67507125871221

> <r_i_glide_lipo>
-0.743154660889059

> <r_i_glide_hbond>
0

> <r_i_glide_metal>
-2.3

> <r_i_glide_rewards>
-1.91392759090909

> <r_i_glide_evdw>
-14.1773519515991

> <r_i_glide_ecoul>
-16.8093357086182

> <r_i_glide_erotb>
0.512278946958619

> <r_i_glide_esite>
0

> <r_i_glide_emodel>
-65.5869575288568

> <r_i_glide_energy>
-30.9866876602173

> <r_i_glide_einternal>
1.88065898418427

> <i_i_glide_confnum>
12

> <i_i_glide_posenum>
69

> <r_i_glide_eff_state_penalty>
0

> <s_user_duplicate_titles>
CHEMBL2023_lig17,CHEMBL2023_lig17,CHEMBL2023_lig17,CHEMBL2023_lig17,CHEMBL2023_lig17

> <s_m_subgroup_title>
glide-dock_SP_comt_chembl_pv

> <s_m_subgroupid>
glide-dock_SP_comt_chembl_pv

> <b_m_subgroup_collapsed>
1

$$$$
CHEMBL2023_lig38
                    3D
 Schrodinger Suite 2021-1.
 32 34  0  0  1  0            999 V2000
   -3.6858  -11.8158  -20.1895 C   0  0  0  0  0  0
   -4.0866  -12.0555  -18.8176 N   0  3  0  0  0  0
   -4.0540  -13.3383  -18.3710 C   0  0  0  0  0  0
   -4.4431  -13.6425  -17.0564 C   0  0  0  0  0  0
   -4.8497  -12.6033  -16.2047 C   0  0  0  0  0  0
   -4.8362  -11.2803  -16.6728 C   0  0  0  0  0  0
   -4.4541  -11.0206  -18.0131 C   0  0  0  0  0  0
   -5.2540  -12.8729  -14.9299 O   0  0  0  0  0  0
   -5.2105  -10.2860  -15.8230 O   0  5  0  0  0  0
   -2.5942  -12.5306  -20.7256 C   0  0  0  0  0  0
   -2.2171  -12.3007  -22.0572 C   0  0  0  0  0  0
   -2.8797  -11.4563  -22.8652 N   0  0  0  0  0  0
   -3.9579  -10.7999  -22.3849 C   0  0  0  0  0  0
   -4.3828  -10.9272  -21.0401 C   0  0  0  0  0  0
   -4.6897  -10.0182  -23.3972 C   0  0  0  0  0  0
   -6.0831  -10.1814  -23.5578 C   0  0  0  0  0  0
   -6.7832   -9.4860  -24.5631 C   0  0  0  0  0  0
   -6.0942   -8.6106  -25.4229 C   0  0  0  0  0  0
   -4.7062   -8.4333  -25.2730 C   0  0  0  0  0  0
   -4.0115   -9.1325  -24.2663 C   0  0  0  0  0  0
   -3.7713  -14.1095  -19.0713 H   0  0  0  0  0  0
   -4.4540  -14.6679  -16.7134 H   0  0  0  0  0  0
   -4.4338  -10.0297  -18.4435 H   0  0  0  0  0  0
   -5.6720  -13.7401  -14.9214 H   0  0  0  0  0  0
   -2.0540  -13.2504  -20.1370 H   0  0  0  0  0  0
   -1.3778  -12.8248  -22.4900 H   0  0  0  0  0  0
   -5.2540  -10.3897  -20.6970 H   0  0  0  0  0  0
   -6.6229  -10.8610  -22.9150 H   0  0  0  0  0  0
   -7.8489   -9.6241  -24.6742 H   0  0  0  0  0  0
   -6.6292   -8.0751  -26.1935 H   0  0  0  0  0  0
   -4.1732   -7.7621  -25.9303 H   0  0  0  0  0  0
   -2.9442   -8.9969  -24.1688 H   0  0  0  0  0  0
  1 10  2  0  0  0
  1 14  1  0  0  0
  1  2  1  0  0  0
  2  3  2  0  0  0
  2  7  1  0  0  0
  3  4  1  0  0  0
  3 21  1  0  0  0
  4 22  1  0  0  0
  4  5  2  0  0  0
  5  6  1  0  0  0
  5  8  1  0  0  0
  6  7  2  0  0  0
  6  9  1  0  0  0
  7 23  1  0  0  0
  8 24  1  0  0  0
 10 11  1  0  0  0
 10 25  1  0  0  0
 11 12  2  0  0  0
 11 26  1  0  0  0
 12 13  1  0  0  0
 13 14  2  0  0  0
 13 15  1  0  0  0
 14 27  1  0  0  0
 15 16  2  0  0  0
 15 20  1  0  0  0
 16 17  1  0  0  0
 16 28  1  0  0  0
 17 18  2  0  0  0
 17 29  1  0  0  0
 18 19  1  0  0  0
 18 30  1  0  0  0
 19 20  2  0  0  0
 19 31  1  0  0  0
 20 32  1  0  0  0
M  CHG  2   2   1   9  -1
M  END
> <s_m_entry_id>
241

> <s_m_entry_name>
glide-dock_SP_comt_chembl_pv.240

> <s_m_Source_Path>
/home/csk/Desktop/cluster/DUD-E-result/comt/glide-dock_SP_comt_chembl

> <s_m_Source_File>
glide-dock_SP_comt_chembl_pv.maegz

> <i_m_Source_File_Index>
240

> <chembl_id>
CHEMBL3798286

> <chembl_pref_name>
None

> <i_lp_mmshare_version>
53161

> <i_f3d_flags>
0

> <r_lp_tautomer_probability>
0.995892618013405

> <s_lp_Force_Field>
OPLS_2005

> <r_lp_Energy>
18.219027

> <b_lp_Chiralities_Consistent>
1

> <s_lp_Variant>
CHEMBL2023_lig38-1

> <s_i_glide_gridfile>
glide-grid_3bwm

> <i_i_glide_lignum>
50

> <i_i_glide_rotatable_bonds>
3

> <r_i_docking_score>
-7.66264990847125

> <r_i_glide_ligand_efficiency>
-0.383132495423563

> <r_i_glide_ligand_efficiency_sa>
-1.03998159402918

> <r_i_glide_ligand_efficiency_ln>
-1.91770854098183

> <r_i_glide_gscore>
-7.66264990847125

> <r_i_glide_lipo>
-0.732816118127082

> <r_i_glide_hbond>
0

> <r_i_glide_metal>
-2.3

> <r_i_glide_rewards>
-1.90719081818182

> <r_i_glide_evdw>
-14.9670686721802

> <r_i_glide_ecoul>
-16.5551261901855

> <r_i_glide_erotb>
0.508979389974489

> <r_i_glide_esite>
0

> <r_i_glide_emodel>
-66.0258164195116

> <r_i_glide_energy>
-31.5221948623657

> <r_i_glide_einternal>
1.75002813339233

> <i_i_glide_confnum>
12

> <i_i_glide_posenum>
93

> <r_i_glide_eff_state_penalty>
0

> <s_user_duplicate_titles>
CHEMBL2023_lig38,CHEMBL2023_lig38,CHEMBL2023_lig38,CHEMBL2023_lig38,CHEMBL2023_lig38

> <s_m_subgroup_title>
glide-dock_SP_comt_chembl_pv

> <s_m_subgroupid>
glide-dock_SP_comt_chembl_pv

> <b_m_subgroup_collapsed>
1

$$$$
CHEMBL2023_lig80 
                    3D
 Schrodinger Suite 2021-1.
 34 35  0  0  1  0            999 V2000
   -4.8115  -12.3545  -16.2072 C   0  0  0  0  0  0
   -4.2956  -13.3510  -17.0606 C   0  0  0  0  0  0
   -4.4647  -10.7292  -17.9769 C   0  0  0  0  0  0
   -4.8514  -11.0220  -16.6568 C   0  0  0  0  0  0
   -4.0179  -11.7763  -18.8108 C   0  0  0  0  0  0
   -3.8958  -13.0430  -18.3209 N   0  3  0  0  0  0
   -3.3176  -14.1262  -19.1625 C   0  0  0  0  0  0
   -2.9184  -13.6823  -20.5901 C   0  0  0  0  0  0
   -3.8663  -12.6990  -21.0943 N   0  0  1  0  0  0
   -3.7007  -11.5088  -20.2687 C   0  0  0  0  0  0
   -5.2766  -10.0355  -15.8234 O   0  0  0  0  0  0
   -5.2540  -12.6862  -14.9581 O   0  5  0  0  0  0
   -3.6092  -12.4183  -22.5102 C   0  0  0  0  0  0
   -4.8118  -11.8064  -23.2750 C   0  0  0  0  0  0
   -4.9110  -10.2713  -23.1956 C   0  0  0  0  0  0
   -6.1532  -12.4885  -22.9510 C   0  0  0  0  0  0
   -4.2195  -14.3886  -16.7658 H   0  0  0  0  0  0
   -4.5386   -9.7236  -18.3644 H   0  0  0  0  0  0
   -4.0537  -14.9243  -19.2111 H   0  0  0  0  0  0
   -2.4557  -14.5277  -18.6301 H   0  0  0  0  0  0
   -2.8997  -14.5595  -21.2379 H   0  0  0  0  0  0
   -1.9110  -13.2666  -20.6153 H   0  0  0  0  0  0
   -2.6860  -11.1154  -20.3484 H   0  0  0  0  0  0
   -4.3746  -10.7264  -20.6010 H   0  0  0  0  0  0
   -5.5220   -9.2258  -16.2509 H   0  0  0  0  0  0
   -3.3977  -13.3724  -22.9991 H   0  0  0  0  0  0
   -2.7086  -11.8156  -22.6354 H   0  0  0  0  0  0
   -4.6080  -12.0189  -24.3269 H   0  0  0  0  0  0
   -5.3602   -9.9311  -22.2657 H   0  0  0  0  0  0
   -3.9332   -9.8017  -23.2994 H   0  0  0  0  0  0
   -5.5414   -9.8901  -24.0005 H   0  0  0  0  0  0
   -6.4641  -12.2860  -21.9248 H   0  0  0  0  0  0
   -6.9435  -12.1276  -23.6090 H   0  0  0  0  0  0
   -6.0832  -13.5690  -23.0746 H   0  0  0  0  0  0
  1  2  2  0  0  0
  1 12  1  0  0  0
  1  4  1  0  0  0
  2  6  1  0  0  0
  2 17  1  0  0  0
  3 18  1  0  0  0
  3  5  1  0  0  0
  3  4  2  0  0  0
  4 11  1  0  0  0
  5 10  1  0  0  0
  5  6  2  0  0  0
  6  7  1  0  0  0
  7  8  1  0  0  0
  7 19  1  0  0  0
  7 20  1  0  0  0
  8  9  1  0  0  0
  8 21  1  0  0  0
  8 22  1  0  0  0
  9 10  1  0  0  0
  9 13  1  0  0  0
 10 23  1  0  0  0
 10 24  1  0  0  0
 11 25  1  0  0  0
 13 14  1  0  0  0
 13 26  1  0  0  0
 13 27  1  0  0  0
 14 15  1  0  0  0
 14 16  1  0  0  0
 14 28  1  0  0  0
 15 29  1  0  0  0
 15 30  1  0  0  0
 15 31  1  0  0  0
 16 32  1  0  0  0
 16 33  1  0  0  0
 16 34  1  0  0  0
M  CHG  2   6   1  12  -1
M  END
> <s_m_entry_id>
244

> <s_m_entry_name>
glide-dock_SP_comt_chembl_pv.243

> <s_m_Source_Path>
/home/csk/Desktop/cluster/DUD-E-result/comt/glide-dock_SP_comt_chembl

> <s_m_Source_File>
glide-dock_SP_comt_chembl_pv.maegz

> <i_m_Source_File_Index>
243

> <chembl_id>
CHEMBL4446921

> <chembl_pref_name>
None

> <i_lp_mmshare_version>
53161

> <i_f3d_flags>
0

> <r_lp_tautomer_probability>
0.995892618013405

> <s_lp_Force_Field>
OPLS_2005

> <r_lp_Energy>
13.525301

> <b_lp_Chiralities_Consistent>
1

> <s_lp_Variant>
CHEMBL2023_lig80 -1

> <s_i_glide_gridfile>
glide-grid_3bwm

> <i_i_glide_lignum>
102

> <i_i_glide_rotatable_bonds>
3

> <r_i_docking_score>
-7.63631116066592

> <r_i_glide_ligand_efficiency>
-0.47726944754162

> <r_i_glide_ligand_efficiency_sa>
-1.20264364574729

> <r_i_glide_ligand_efficiency_ln>
-2.0241568119125

> <r_i_glide_gscore>
-7.63631116066592

> <r_i_glide_lipo>
-0.594892051265284

> <r_i_glide_hbond>
-0.107520653053822

> <r_i_glide_metal>
-2.3

> <r_i_glide_rewards>
-2.19352145454545

> <r_i_glide_evdw>
-16.6237659454346

> <r_i_glide_ecoul>
-13.0078964233398

> <r_i_glide_erotb>
0.341995758971344

> <r_i_glide_esite>
0

> <r_i_glide_emodel>
-63.4955548392138

> <r_i_glide_energy>
-29.6316623687744

> <r_i_glide_einternal>
2.72524642944336

> <i_i_glide_confnum>
1

> <i_i_glide_posenum>
73

> <r_i_glide_eff_state_penalty>
0

> <s_user_duplicate_titles>
CHEMBL2023_lig80 ,CHEMBL2023_lig80 ,CHEMBL2023_lig80 ,CHEMBL2023_lig80 ,CHEMBL2023_lig80 

> <s_m_subgroup_title>
glide-dock_SP_comt_chembl_pv

> <s_m_subgroupid>
glide-dock_SP_comt_chembl_pv

> <b_m_subgroup_collapsed>
1

$$$$
CHEMBL2023_lig47
                    3D
 Schrodinger Suite 2021-1.
 31 33  0  0  1  0            999 V2000
   -3.5826  -11.8095  -20.1368 C   0  0  0  0  0  0
   -4.0469  -12.0488  -18.7871 N   0  3  0  0  0  0
   -4.0093  -13.3307  -18.3419 C   0  0  0  0  0  0
   -4.4221  -13.6387  -17.0342 C   0  0  0  0  0  0
   -4.8536  -12.6023  -16.1906 C   0  0  0  0  0  0
   -4.8539  -11.2798  -16.6623 C   0  0  0  0  0  0
   -4.4541  -11.0181  -17.9966 C   0  0  0  0  0  0
   -5.2540  -12.8747  -14.9155 O   0  0  0  0  0  0
   -5.2540  -10.2860  -15.8230 O   0  5  0  0  0  0
   -2.4540  -12.4299  -20.5490 N   0  0  0  0  0  0
   -2.0152  -12.2366  -21.8052 C   0  0  0  0  0  0
   -2.7012  -11.4421  -22.7323 C   0  0  0  0  0  0
   -3.9019  -10.8117  -22.3472 C   0  0  0  0  0  0
   -4.3355  -10.9896  -21.0105 C   0  0  0  0  0  0
   -4.6852  -10.0553  -23.3420 C   0  0  0  0  0  0
   -6.0823  -10.2087  -23.4588 C   0  0  0  0  0  0
   -6.7649   -9.5068  -24.4699 C   0  0  0  0  0  0
   -6.0262   -8.6780  -25.3325 C   0  0  0  0  0  0
   -4.6357   -8.5837  -25.1390 C   0  0  0  0  0  0
   -3.9771   -9.2543  -24.1712 N   0  0  0  0  0  0
   -3.6709  -14.0868  -19.0356 H   0  0  0  0  0  0
   -4.4213  -14.6627  -16.6873 H   0  0  0  0  0  0
   -4.4330  -10.0278  -18.4285 H   0  0  0  0  0  0
   -5.6695  -13.7431  -14.9081 H   0  0  0  0  0  0
   -1.1018  -12.7425  -22.0814 H   0  0  0  0  0  0
   -2.3233  -11.3385  -23.7396 H   0  0  0  0  0  0
   -5.2539  -10.5276  -20.6813 H   0  0  0  0  0  0
   -6.6230  -10.8658  -22.7943 H   0  0  0  0  0  0
   -7.8347   -9.6055  -24.5825 H   0  0  0  0  0  0
   -6.5133   -8.1225  -26.1203 H   0  0  0  0  0  0
   -4.0358   -7.9533  -25.7784 H   0  0  0  0  0  0
  1 10  2  0  0  0
  1 14  1  0  0  0
  1  2  1  0  0  0
  2  3  2  0  0  0
  2  7  1  0  0  0
  3  4  1  0  0  0
  3 21  1  0  0  0
  4 22  1  0  0  0
  4  5  2  0  0  0
  5  6  1  0  0  0
  5  8  1  0  0  0
  6  7  2  0  0  0
  6  9  1  0  0  0
  7 23  1  0  0  0
  8 24  1  0  0  0
 10 11  1  0  0  0
 11 12  2  0  0  0
 11 25  1  0  0  0
 12 13  1  0  0  0
 12 26  1  0  0  0
 13 14  2  0  0  0
 13 15  1  0  0  0
 14 27  1  0  0  0
 15 16  2  0  0  0
 15 20  1  0  0  0
 16 17  1  0  0  0
 16 28  1  0  0  0
 17 18  2  0  0  0
 17 29  1  0  0  0
 18 19  1  0  0  0
 18 30  1  0  0  0
 19 20  2  0  0  0
 19 31  1  0  0  0
M  CHG  2   2   1   9  -1
M  END
> <s_m_entry_id>
249

> <s_m_entry_name>
glide-dock_SP_comt_chembl_pv.248

> <s_m_Source_Path>
/home/csk/Desktop/cluster/DUD-E-result/comt/glide-dock_SP_comt_chembl

> <s_m_Source_File>
glide-dock_SP_comt_chembl_pv.maegz

> <i_m_Source_File_Index>
248

> <chembl_id>
CHEMBL3798854

> <chembl_pref_name>
None

> <i_lp_mmshare_version>
53161

> <i_f3d_flags>
0

> <r_lp_tautomer_probability>
0.995892618013405

> <s_lp_Force_Field>
OPLS_2005

> <r_lp_Energy>
14.287084

> <b_lp_Chiralities_Consistent>
1

> <s_lp_Variant>
CHEMBL2023_lig47-1

> <s_i_glide_gridfile>
glide-grid_3bwm

> <i_i_glide_lignum>
59

> <i_i_glide_rotatable_bonds>
3

> <r_i_docking_score>
-7.62136981419493

> <r_i_glide_ligand_efficiency>
-0.381068490709747

> <r_i_glide_ligand_efficiency_sa>
-1.03437902327886

> <r_i_glide_ligand_efficiency_ln>
-1.9073774948931

> <r_i_glide_gscore>
-7.62136981419493

> <r_i_glide_lipo>
-0.551894672035233

> <r_i_glide_hbond>
0

> <r_i_glide_metal>
-2.3

> <r_i_glide_rewards>
-1.90045404545454

> <r_i_glide_evdw>
-15.0209293365479

> <r_i_glide_ecoul>
-17.4912433624268

> <r_i_glide_erotb>
0.505711874486252

> <r_i_glide_esite>
0

> <r_i_glide_emodel>
-67.6318400147727

> <r_i_glide_energy>
-32.5121726989746

> <r_i_glide_einternal>
1.97845661640167

> <i_i_glide_confnum>
13

> <i_i_glide_posenum>
99

> <r_i_glide_eff_state_penalty>
0

> <s_user_duplicate_titles>
CHEMBL2023_lig47,CHEMBL2023_lig47

> <s_m_subgroup_title>
glide-dock_SP_comt_chembl_pv

> <s_m_subgroupid>
glide-dock_SP_comt_chembl_pv

> <b_m_subgroup_collapsed>
1

$$$$
CHEMBL2023_lig103 
                    3D
 Schrodinger Suite 2021-1.
 35 37  0  0  1  0            999 V2000
   -4.8531  -12.4356  -16.0766 C   0  0  0  0  0  0
   -4.3477  -13.4860  -16.8658 C   0  0  0  0  0  0
   -4.5114  -10.9381  -17.9620 C   0  0  0  0  0  0
   -4.8760  -11.1367  -16.6170 C   0  0  0  0  0  0
   -4.0832  -12.0459  -18.7248 C   0  0  0  0  0  0
   -3.9513  -13.2716  -18.1425 N   0  3  0  0  0  0
   -3.3670  -14.4146  -18.8916 C   0  0  0  0  0  0
   -3.0604  -14.1133  -20.3725 C   0  0  0  0  0  0
   -4.0094  -13.1530  -20.9234 N   0  0  1  0  0  0
   -3.8003  -11.8999  -20.2077 C   0  0  0  0  0  0
   -5.2540  -10.0965  -15.8230 O   0  0  0  0  0  0
   -5.2540  -12.6861  -14.7940 O   0  5  0  0  0  0
   -3.7915  -12.9417  -22.3546 C   0  0  0  0  0  0
   -4.1887  -14.1372  -23.2106 C   0  0  0  0  0  0
   -3.2228  -15.0372  -23.7257 C   0  0  0  0  0  0
   -3.6319  -16.1404  -24.5010 C   0  0  0  0  0  0
   -4.9966  -16.3542  -24.7694 C   0  0  0  0  0  0
   -5.9581  -15.4591  -24.2660 C   0  0  0  0  0  0
   -5.5565  -14.3535  -23.4926 C   0  0  0  0  0  0
   -6.4952  -13.4960  -23.0230 F   0  0  0  0  0  0
   -1.5347  -14.8241  -23.4173 Cl  0  0  0  0  0  0
   -4.2683  -14.4997  -16.4997 H   0  0  0  0  0  0
   -4.5862   -9.9600  -18.4157 H   0  0  0  0  0  0
   -4.0540  -15.2519  -18.8034 H   0  0  0  0  0  0
   -2.4557  -14.7149  -18.3764 H   0  0  0  0  0  0
   -3.0830  -15.0483  -20.9314 H   0  0  0  0  0  0
   -2.0526  -13.7153  -20.4752 H   0  0  0  0  0  0
   -2.7821  -11.5326  -20.3484 H   0  0  0  0  0  0
   -4.4741  -11.1421  -20.6115 H   0  0  0  0  0  0
   -5.5081   -9.3110  -16.2941 H   0  0  0  0  0  0
   -2.7593  -12.6477  -22.5464 H   0  0  0  0  0  0
   -4.4031  -12.0996  -22.6823 H   0  0  0  0  0  0
   -2.8949  -16.8288  -24.8884 H   0  0  0  0  0  0
   -5.3039  -17.2033  -25.3623 H   0  0  0  0  0  0
   -7.0053  -15.6185  -24.4746 H   0  0  0  0  0  0
  1  2  2  0  0  0
  1 12  1  0  0  0
  1  4  1  0  0  0
  2  6  1  0  0  0
  2 22  1  0  0  0
  3 23  1  0  0  0
  3  5  1  0  0  0
  3  4  2  0  0  0
  4 11  1  0  0  0
  5 10  1  0  0  0
  5  6  2  0  0  0
  6  7  1  0  0  0
  7  8  1  0  0  0
  7 24  1  0  0  0
  7 25  1  0  0  0
  8  9  1  0  0  0
  8 26  1  0  0  0
  8 27  1  0  0  0
  9 10  1  0  0  0
  9 13  1  0  0  0
 10 28  1  0  0  0
 10 29  1  0  0  0
 11 30  1  0  0  0
 13 14  1  0  0  0
 13 31  1  0  0  0
 13 32  1  0  0  0
 14 15  2  0  0  0
 14 19  1  0  0  0
 15 16  1  0  0  0
 15 21  1  0  0  0
 16 17  2  0  0  0
 16 33  1  0  0  0
 17 18  1  0  0  0
 17 34  1  0  0  0
 18 19  2  0  0  0
 18 35  1  0  0  0
 19 20  1  0  0  0
M  CHG  2   6   1  12  -1
M  END
> <s_m_entry_id>
250

> <s_m_entry_name>
glide-dock_SP_comt_chembl_pv.249

> <s_m_Source_Path>
/home/csk/Desktop/cluster/DUD-E-result/comt/glide-dock_SP_comt_chembl

> <s_m_Source_File>
glide-dock_SP_comt_chembl_pv.maegz

> <i_m_Source_File_Index>
249

> <chembl_id>
CHEMBL4531460

> <chembl_pref_name>
None

> <i_lp_mmshare_version>
53161

> <i_f3d_flags>
0

> <r_lp_tautomer_probability>
0.995892618013405

> <s_lp_Force_Field>
OPLS_2005

> <r_lp_Energy>
17.110248

> <b_lp_Chiralities_Consistent>
1

> <s_lp_Variant>
CHEMBL2023_lig103 -1

> <s_i_glide_gridfile>
glide-grid_3bwm

> <i_i_glide_lignum>
125

> <i_i_glide_rotatable_bonds>
3

> <r_i_docking_score>
-7.61951719778435

> <r_i_glide_ligand_efficiency>
-0.362834152275445

> <r_i_glide_ligand_efficiency_sa>
-1.00103191371359

> <r_i_glide_ligand_efficiency_ln>
-1.88391023046795

> <r_i_glide_gscore>
-7.61951719778435

> <r_i_glide_lipo>
-0.523142944673246

> <r_i_glide_hbond>
-0.12271292708011

> <r_i_glide_metal>
-2.3

> <r_i_glide_rewards>
-2.05407979772727

> <r_i_glide_evdw>
-16.6197299957275

> <r_i_glide_ecoul>
-14.5126399993896

> <r_i_glide_erotb>
0.388300971391106

> <r_i_glide_esite>
0

> <r_i_glide_emodel>
-67.4851154283728

> <r_i_glide_energy>
-31.1323699951172

> <r_i_glide_einternal>
0.333887666463852

> <i_i_glide_confnum>
2

> <i_i_glide_posenum>
392

> <r_i_glide_eff_state_penalty>
0

> <s_user_duplicate_titles>
CHEMBL2023_lig103 ,CHEMBL2023_lig103 ,CHEMBL2023_lig103 ,CHEMBL2023_lig103 ,CHEMBL2023_lig103 

> <s_m_subgroup_title>
glide-dock_SP_comt_chembl_pv

> <s_m_subgroupid>
glide-dock_SP_comt_chembl_pv

> <b_m_subgroup_collapsed>
1

$$$$
CHEMBL2023_lig105 
                    3D
 Schrodinger Suite 2021-1.
 38 38  0  0  1  0            999 V2000
   -4.7479  -12.2907  -16.4639 C   0  0  0  0  0  0
   -4.7616  -10.9213  -16.7586 C   0  0  0  0  0  0
   -4.2757  -10.4643  -17.9962 C   0  0  0  0  0  0
   -3.8099  -11.4004  -18.9359 C   0  0  0  0  0  0
   -3.7099  -12.7836  -18.6590 C   0  0  0  0  0  0
   -4.2105  -13.2136  -17.3946 C   0  0  0  0  0  0
   -3.0949  -13.7379  -19.6487 C   0  0  0  0  0  0
   -2.4086  -13.4299  -20.7927 C   0  0  0  0  0  0
   -3.2644  -15.0296  -19.3150 O   0  0  0  0  0  0
   -2.0520  -12.1211  -21.2353 C   0  0  0  0  0  0
   -1.8612  -14.4282  -21.7090 C   0  0  0  0  0  0
   -2.7515  -15.0936  -22.4969 N   0  0  0  0  0  0
   -0.6462  -14.5978  -21.8207 O   0  0  0  0  0  0
   -4.2060  -14.8442  -22.5503 C   0  0  0  0  0  0
   -2.2639  -16.0395  -23.5216 C   0  0  0  0  0  0
   -1.5882  -17.2988  -22.9439 C   0  0  0  0  0  0
   -4.5502  -13.6198  -23.4124 C   0  0  0  0  0  0
   -1.7228  -11.0723  -21.6039 N   0  0  0  0  0  0
   -5.2540  -12.6868  -15.2527 O   0  0  0  0  0  0
   -5.2543  -10.0624  -15.8230 O   0  0  0  0  0  0
   -4.1845   -9.0326  -18.3101 N   0  3  0  0  0  0
   -5.0082   -8.2654  -17.8231 O   0  5  0  0  0  0
   -3.2502   -8.6862  -19.0225 O   0  0  0  0  0  0
   -3.5347  -10.9890  -19.8847 H   0  0  0  0  0  0
   -4.1931  -14.2555  -17.1098 H   0  0  0  0  0  0
   -3.7298  -15.0558  -18.4932 H   0  0  0  0  0  0
   -4.6355  -14.7241  -21.5578 H   0  0  0  0  0  0
   -4.7234  -15.7159  -22.9533 H   0  0  0  0  0  0
   -3.0726  -16.3540  -24.1816 H   0  0  0  0  0  0
   -1.5589  -15.5209  -24.1738 H   0  0  0  0  0  0
   -1.3554  -18.0043  -23.7415 H   0  0  0  0  0  0
   -0.6493  -17.0692  -22.4408 H   0  0  0  0  0  0
   -2.2235  -17.8147  -22.2270 H   0  0  0  0  0  0
   -5.6303  -13.4884  -23.4792 H   0  0  0  0  0  0
   -4.1689  -13.7337  -24.4278 H   0  0  0  0  0  0
   -4.1360  -12.6997  -23.0014 H   0  0  0  0  0  0
   -5.6458  -13.5650  -15.3315 H   0  0  0  0  0  0
   -5.4611   -9.2025  -16.1870 H   0  0  0  0  0  0
  1  2  2  0  0  0
  1  6  1  0  0  0
  1 19  1  0  0  0
  2  3  1  0  0  0
  2 20  1  0  0  0
  3  4  2  0  0  0
  3 21  1  0  0  0
  4  5  1  0  0  0
  4 24  1  0  0  0
  5  6  2  0  0  0
  5  7  1  0  0  0
  6 25  1  0  0  0
  7  8  2  0  0  0
  7  9  1  0  0  0
  8 10  1  0  0  0
  8 11  1  0  0  0
  9 26  1  0  0  0
 10 18  3  0  0  0
 11 12  1  0  0  0
 11 13  2  0  0  0
 12 14  1  0  0  0
 12 15  1  0  0  0
 14 17  1  0  0  0
 14 27  1  0  0  0
 14 28  1  0  0  0
 15 16  1  0  0  0
 15 29  1  0  0  0
 15 30  1  0  0  0
 16 31  1  0  0  0
 16 32  1  0  0  0
 16 33  1  0  0  0
 17 34  1  0  0  0
 17 35  1  0  0  0
 17 36  1  0  0  0
 19 37  1  0  0  0
 20 38  1  0  0  0
 21 22  1  0  0  0
 21 23  2  0  0  0
M  CHG  2  21   1  22  -1
M  END
> <s_m_entry_id>
253

> <s_m_entry_name>
glide-dock_SP_comt_chembl_pv.252

> <s_m_Source_Path>
/home/csk/Desktop/cluster/DUD-E-result/comt/glide-dock_SP_comt_chembl

> <s_m_Source_File>
glide-dock_SP_comt_chembl_pv.maegz

> <i_m_Source_File_Index>
252

> <chembl_id>
CHEMBL4461072

> <chembl_pref_name>
None

> <i_lp_mmshare_version>
53161

> <i_f3d_flags>
0

> <r_lp_tautomer_probability>
1

> <s_lp_Force_Field>
OPLS_2005

> <r_lp_Energy>
34.62394

> <b_lp_Chiralities_Consistent>
1

> <s_lp_Variant>
CHEMBL2023_lig105 -1

> <s_i_glide_gridfile>
glide-grid_3bwm

> <i_i_glide_lignum>
127

> <i_i_glide_rotatable_bonds>
9

> <r_i_docking_score>
-7.60435496010452

> <r_i_glide_ligand_efficiency>
-0.330624128700197

> <r_i_glide_ligand_efficiency_sa>
-0.940251041369966

> <r_i_glide_ligand_efficiency_ln>
-1.83880198183181

> <r_i_glide_gscore>
-7.60435496010452

> <r_i_glide_lipo>
-0.568108757151788

> <r_i_glide_hbond>
-0.0954755529280116

> <r_i_glide_metal>
-2.3

> <r_i_glide_rewards>
-1.21751688147717

> <r_i_glide_evdw>
-24.9594764709473

> <r_i_glide_ecoul>
-19.2916488647461

> <r_i_glide_erotb>
0.7240335261856

> <r_i_glide_esite>
-0.00556614147388078

> <r_i_glide_emodel>
-64.2261991359714

> <r_i_glide_energy>
-44.2511253356934

> <r_i_glide_einternal>
14.3318929672241

> <i_i_glide_confnum>
18

> <i_i_glide_posenum>
108

> <r_i_glide_eff_state_penalty>
0

> <s_user_duplicate_titles>
CHEMBL2023_lig105 ,CHEMBL2023_lig105 ,CHEMBL2023_lig105 ,CHEMBL2023_lig105 ,CHEMBL2023_lig105 

> <s_m_subgroup_title>
glide-dock_SP_comt_chembl_pv

> <s_m_subgroupid>
glide-dock_SP_comt_chembl_pv

> <b_m_subgroup_collapsed>
1

$$$$
CHEMBL2023_lig29
                    3D
 Schrodinger Suite 2021-1.
 39 41  0  0  1  0            999 V2000
   -4.7780  -12.5190  -16.4505 C   0  0  0  0  0  0
   -4.4214  -13.4192  -17.3816 C   0  0  0  0  0  0
   -3.9221  -13.0401  -18.7008 C   0  0  0  0  0  0
   -4.0395  -11.7106  -19.0167 C   0  0  0  0  0  0
   -4.4540  -10.7611  -18.0267 N   0  0  0  0  0  0
   -4.7101  -11.1008  -16.7302 C   0  0  0  0  0  0
   -4.9082  -10.2861  -15.8230 O   0  0  0  0  0  0
   -5.2540  -12.8852  -15.2497 O   0  0  0  0  0  0
   -4.5663   -9.3373  -18.3980 C   0  0  0  0  0  0
   -3.2540  -14.1132  -19.5379 C   0  0  0  0  0  0
   -2.7117  -15.2464  -18.8811 C   0  0  0  0  0  0
   -1.9141  -16.1936  -19.5483 C   0  0  0  0  0  0
   -1.6540  -16.0721  -20.9226 C   0  0  0  0  0  0
   -2.2571  -15.0013  -21.6202 C   0  0  0  0  0  0
   -3.0464  -14.0520  -20.9406 C   0  0  0  0  0  0
   -3.6830  -11.1774  -20.3466 C   0  0  0  0  0  0
   -2.3871  -10.7062  -20.6230 C   0  0  0  0  0  0
   -2.0963  -10.2860  -21.9352 C   0  0  0  0  0  0
   -3.0140  -10.2408  -22.9216 N   0  0  0  0  0  0
   -4.2685  -10.6447  -22.6361 C   0  0  0  0  0  0
   -4.6485  -11.1295  -21.3711 C   0  0  0  0  0  0
   -0.8483  -17.0279  -21.5010 O   0  0  0  0  0  0
   -0.6035  -16.9373  -22.8965 C   0  0  0  0  0  0
   -4.5684  -14.4617  -17.1390 H   0  0  0  0  0  0
   -5.5791  -13.7850  -15.3465 H   0  0  0  0  0  0
   -4.6809   -8.6507  -17.5580 H   0  0  0  0  0  0
   -3.6919   -8.9816  -18.9415 H   0  0  0  0  0  0
   -5.4463   -9.1994  -19.0230 H   0  0  0  0  0  0
   -2.8167  -15.3833  -17.8230 H   0  0  0  0  0  0
   -1.4825  -17.0150  -18.9948 H   0  0  0  0  0  0
   -2.1231  -14.8776  -22.6841 H   0  0  0  0  0  0
   -3.4683  -13.2871  -21.5598 H   0  0  0  0  0  0
   -1.6355  -10.6860  -19.8538 H   0  0  0  0  0  0
   -1.1053   -9.9412  -22.1911 H   0  0  0  0  0  0
   -4.9836  -10.6028  -23.4442 H   0  0  0  0  0  0
   -5.6537  -11.4856  -21.2005 H   0  0  0  0  0  0
    0.0478  -17.7563  -23.2012 H   0  0  0  0  0  0
   -1.5283  -17.0212  -23.4690 H   0  0  0  0  0  0
   -0.1016  -16.0036  -23.1538 H   0  0  0  0  0  0
  1  2  2  0  0  0
  1  6  1  0  0  0
  1  8  1  0  0  0
  2  3  1  0  0  0
  2 24  1  0  0  0
  3  4  2  0  0  0
  3 10  1  0  0  0
  4  5  1  0  0  0
  4 16  1  0  0  0
  5  6  1  0  0  0
  5  9  1  0  0  0
  6  7  2  0  0  0
  8 25  1  0  0  0
  9 26  1  0  0  0
  9 27  1  0  0  0
  9 28  1  0  0  0
 10 11  2  0  0  0
 10 15  1  0  0  0
 11 12  1  0  0  0
 11 29  1  0  0  0
 12 13  2  0  0  0
 12 30  1  0  0  0
 13 14  1  0  0  0
 13 22  1  0  0  0
 14 15  2  0  0  0
 14 31  1  0  0  0
 15 32  1  0  0  0
 16 17  2  0  0  0
 16 21  1  0  0  0
 17 18  1  0  0  0
 17 33  1  0  0  0
 18 19  2  0  0  0
 18 34  1  0  0  0
 19 20  1  0  0  0
 20 21  2  0  0  0
 20 35  1  0  0  0
 21 36  1  0  0  0
 22 23  1  0  0  0
 23 37  1  0  0  0
 23 38  1  0  0  0
 23 39  1  0  0  0
M  END
> <s_m_entry_id>
254

> <s_m_entry_name>
glide-dock_SP_comt_chembl_pv.253

> <s_m_Source_Path>
/home/csk/Desktop/cluster/DUD-E-result/comt/glide-dock_SP_comt_chembl

> <s_m_Source_File>
glide-dock_SP_comt_chembl_pv.maegz

> <i_m_Source_File_Index>
253

> <chembl_id>
CHEMBL3425723

> <chembl_pref_name>
None

> <i_lp_mmshare_version>
53161

> <i_f3d_flags>
0

> <r_lp_tautomer_probability>
0.993533780148087

> <s_lp_Force_Field>
OPLS_2005

> <r_lp_Energy>
37.419955

> <b_lp_Chiralities_Consistent>
1

> <s_lp_Variant>
CHEMBL2023_lig29-1

> <s_i_glide_gridfile>
glide-grid_3bwm

> <i_i_glide_lignum>
38

> <i_i_glide_rotatable_bonds>
4

> <r_i_docking_score>
-7.60178788411357

> <r_i_glide_ligand_efficiency>
-0.33051251670059

> <r_i_glide_ligand_efficiency_sa>
-0.939933631690061

> <r_i_glide_ligand_efficiency_ln>
-1.83818123958024

> <r_i_glide_gscore>
-7.60178788411357

> <r_i_glide_lipo>
-1.0427417419978

> <r_i_glide_hbond>
-0.00931269246710306

> <r_i_glide_metal>
-2.3

> <r_i_glide_rewards>
-1.30683189771257

> <r_i_glide_evdw>
-24.3932399749756

> <r_i_glide_ecoul>
-13.818377494812

> <r_i_glide_erotb>
0.38919382670023

> <r_i_glide_esite>
-0.0396767556657408

> <r_i_glide_emodel>
-53.5249511792697

> <r_i_glide_energy>
-38.2116174697876

> <r_i_glide_einternal>
9.90852355957031

> <i_i_glide_confnum>
11

> <i_i_glide_posenum>
179

> <r_i_glide_eff_state_penalty>
0

> <s_user_duplicate_titles>
CHEMBL2023_lig29,CHEMBL2023_lig29,CHEMBL2023_lig29

> <s_m_subgroup_title>
glide-dock_SP_comt_chembl_pv

> <s_m_subgroupid>
glide-dock_SP_comt_chembl_pv

> <b_m_subgroup_collapsed>
1

$$$$
CHEMBL2023_lig35
                    3D
 Schrodinger Suite 2021-1.
 32 34  0  0  1  0            999 V2000
   -3.5860  -11.7479  -20.1630 C   0  0  0  0  0  0
   -4.0568  -12.0030  -18.8179 N   0  3  0  0  0  0
   -4.0279  -13.2917  -18.3921 C   0  0  0  0  0  0
   -4.4358  -13.6178  -17.0870 C   0  0  0  0  0  0
   -4.8538  -12.5918  -16.2230 C   0  0  0  0  0  0
   -4.8538  -11.2641  -16.6788 C   0  0  0  0  0  0
   -4.4540  -10.9825  -18.0099 C   0  0  0  0  0  0
   -5.2540  -12.8761  -14.9504 O   0  0  0  0  0  0
   -5.2536  -10.2860  -15.8230 O   0  5  0  0  0  0
   -2.4540  -12.3644  -20.5708 N   0  0  0  0  0  0
   -2.0076  -12.1642  -21.8230 C   0  0  0  0  0  0
   -2.6882  -11.3658  -22.7517 C   0  0  0  0  0  0
   -3.8926  -10.7404  -22.3723 C   0  0  0  0  0  0
   -4.3332  -10.9219  -21.0378 C   0  0  0  0  0  0
   -4.6612   -9.9804  -23.3753 C   0  0  0  0  0  0
   -6.0540  -10.1694  -23.5096 C   0  0  0  0  0  0
   -6.7845   -9.4950  -24.5082 C   0  0  0  0  0  0
   -6.1263   -8.6211  -25.3931 C   0  0  0  0  0  0
   -4.7393   -8.4188  -25.2700 C   0  0  0  0  0  0
   -4.0152   -9.0927  -24.2667 C   0  0  0  0  0  0
   -3.6971  -14.0392  -19.0987 H   0  0  0  0  0  0
   -4.4387  -14.6471  -16.7561 H   0  0  0  0  0  0
   -4.4298   -9.9862  -18.4275 H   0  0  0  0  0  0
   -5.6735  -13.7427  -14.9496 H   0  0  0  0  0  0
   -1.0932  -12.6698  -22.0961 H   0  0  0  0  0  0
   -2.3032  -11.2669  -23.7563 H   0  0  0  0  0  0
   -5.2540  -10.4628  -20.7108 H   0  0  0  0  0  0
   -6.5707  -10.8514  -22.8507 H   0  0  0  0  0  0
   -7.8497   -9.6514  -24.5968 H   0  0  0  0  0  0
   -6.6844   -8.1038  -26.1598 H   0  0  0  0  0  0
   -4.2301   -7.7455  -25.9439 H   0  0  0  0  0  0
   -2.9504   -8.9289  -24.1894 H   0  0  0  0  0  0
  1 10  2  0  0  0
  1 14  1  0  0  0
  1  2  1  0  0  0
  2  3  2  0  0  0
  2  7  1  0  0  0
  3  4  1  0  0  0
  3 21  1  0  0  0
  4 22  1  0  0  0
  4  5  2  0  0  0
  5  6  1  0  0  0
  5  8  1  0  0  0
  6  7  2  0  0  0
  6  9  1  0  0  0
  7 23  1  0  0  0
  8 24  1  0  0  0
 10 11  1  0  0  0
 11 12  2  0  0  0
 11 25  1  0  0  0
 12 13  1  0  0  0
 12 26  1  0  0  0
 13 14  2  0  0  0
 13 15  1  0  0  0
 14 27  1  0  0  0
 15 16  2  0  0  0
 15 20  1  0  0  0
 16 17  1  0  0  0
 16 28  1  0  0  0
 17 18  2  0  0  0
 17 29  1  0  0  0
 18 19  1  0  0  0
 18 30  1  0  0  0
 19 20  2  0  0  0
 19 31  1  0  0  0
 20 32  1  0  0  0
M  CHG  2   2   1   9  -1
M  END
> <s_m_entry_id>
255

> <s_m_entry_name>
glide-dock_SP_comt_chembl_pv.254

> <s_m_Source_Path>
/home/csk/Desktop/cluster/DUD-E-result/comt/glide-dock_SP_comt_chembl

> <s_m_Source_File>
glide-dock_SP_comt_chembl_pv.maegz

> <i_m_Source_File_Index>
254

> <chembl_id>
CHEMBL3799913

> <chembl_pref_name>
None

> <i_lp_mmshare_version>
53161

> <i_f3d_flags>
0

> <r_lp_tautomer_probability>
0.995892618013405

> <s_lp_Force_Field>
OPLS_2005

> <r_lp_Energy>
18.279129

> <b_lp_Chiralities_Consistent>
1

> <s_lp_Variant>
CHEMBL2023_lig35-1

> <s_i_glide_gridfile>
glide-grid_3bwm

> <i_i_glide_lignum>
47

> <i_i_glide_rotatable_bonds>
3

> <r_i_docking_score>
-7.59200002621772

> <r_i_glide_ligand_efficiency>
-0.379600001310886

> <r_i_glide_ligand_efficiency_sa>
-1.03039292978879

> <r_i_glide_ligand_efficiency_ln>
-1.90002720564284

> <r_i_glide_gscore>
-7.59200002621772

> <r_i_glide_lipo>
-0.603655599014156

> <r_i_glide_hbond>
0

> <r_i_glide_metal>
-2.23329901652858

> <r_i_glide_rewards>
-1.90719081818182

> <r_i_glide_evdw>
-15.5508222579956

> <r_i_glide_ecoul>
-17.1952857971191

> <r_i_glide_erotb>
0.508979389974489

> <r_i_glide_esite>
0

> <r_i_glide_emodel>
-67.883055258916

> <r_i_glide_energy>
-32.7461080551147

> <r_i_glide_einternal>
1.67864406108856

> <i_i_glide_confnum>
4

> <i_i_glide_posenum>
359

> <r_i_glide_eff_state_penalty>
0

> <s_user_duplicate_titles>
CHEMBL2023_lig35,CHEMBL2023_lig35

> <s_m_subgroup_title>
glide-dock_SP_comt_chembl_pv

> <s_m_subgroupid>
glide-dock_SP_comt_chembl_pv

> <b_m_subgroup_collapsed>
1

$$$$
CHEMBL2023_lig76
                    3D
 Schrodinger Suite 2021-1.
 36 38  0  0  1  0            999 V2000
   -2.4540   -9.4860  -20.2226 O   0  0  0  0  0  0
   -3.0456  -10.8215  -20.3783 S   0  0  0  0  0  0
   -2.2203  -11.9186  -20.9068 O   0  0  0  0  0  0
   -4.1473  -13.1265  -17.2493 C   0  0  0  0  0  0
   -3.6258  -12.6567  -18.4591 C   0  0  0  0  0  0
   -3.7546  -11.3063  -18.8001 C   0  0  0  0  0  0
   -4.7659  -12.2545  -16.3321 C   0  0  0  0  0  0
   -4.9489  -10.9147  -16.6882 C   0  0  0  0  0  0
   -4.4573  -10.4322  -17.9305 C   0  0  0  0  0  0
   -4.7497   -9.0961  -18.2563 C   0  0  0  0  0  0
   -5.6001   -8.3550  -17.4230 C   0  0  0  0  0  0
   -6.0616   -8.9530  -16.2393 C   0  0  0  0  0  0
   -5.6540  -10.1634  -15.8230 N   0  0  0  0  0  0
   -5.2540  -12.6861  -15.1195 O   0  0  0  0  0  0
   -4.4328  -10.6952  -21.4001 N   0  0  0  0  0  0
   -4.0540  -14.5853  -16.9784 C   0  0  0  0  0  0
   -5.2030  -11.9237  -21.6586 C   0  0  0  0  0  0
   -5.7787  -11.7670  -23.0652 C   0  0  0  0  0  0
   -4.7393  -10.9021  -23.7611 C   0  0  0  0  0  0
   -4.3016   -9.9430  -22.6557 C   0  0  0  0  0  0
   -3.1387  -13.3450  -19.1349 H   0  0  0  0  0  0
   -4.3997   -8.6627  -19.1702 H   0  0  0  0  0  0
   -5.9007   -7.3486  -17.6779 H   0  0  0  0  0  0
   -6.7273   -8.4188  -15.5764 H   0  0  0  0  0  0
   -5.6408  -13.5641  -15.2203 H   0  0  0  0  0  0
   -3.1474  -14.9986  -17.4230 H   0  0  0  0  0  0
   -4.0540  -14.7034  -15.8977 H   0  0  0  0  0  0
   -4.9039  -15.0860  -17.4230 H   0  0  0  0  0  0
   -4.5371  -12.7870  -21.6314 H   0  0  0  0  0  0
   -5.9710  -12.0756  -20.9011 H   0  0  0  0  0  0
   -5.9409  -12.7221  -23.5654 H   0  0  0  0  0  0
   -6.7329  -11.2396  -23.0228 H   0  0  0  0  0  0
   -5.1331  -10.3861  -24.6372 H   0  0  0  0  0  0
   -3.8948  -11.5154  -24.0789 H   0  0  0  0  0  0
   -4.9709   -9.0860  -22.6228 H   0  0  0  0  0  0
   -3.2848   -9.5780  -22.8058 H   0  0  0  0  0  0
  1  2  2  0  0  0
  2  3  2  0  0  0
  2  6  1  0  0  0
  2 15  1  0  0  0
  4  5  2  0  0  0
  4  7  1  0  0  0
  4 16  1  0  0  0
  5  6  1  0  0  0
  5 21  1  0  0  0
  6  9  2  0  0  0
  7  8  2  0  0  0
  7 14  1  0  0  0
  8  9  1  0  0  0
  8 13  1  0  0  0
  9 10  1  0  0  0
 10 11  2  0  0  0
 10 22  1  0  0  0
 11 12  1  0  0  0
 11 23  1  0  0  0
 12 13  2  0  0  0
 12 24  1  0  0  0
 14 25  1  0  0  0
 15 17  1  0  0  0
 15 20  1  0  0  0
 16 26  1  0  0  0
 16 27  1  0  0  0
 16 28  1  0  0  0
 17 18  1  0  0  0
 17 29  1  0  0  0
 17 30  1  0  0  0
 18 19  1  0  0  0
 18 31  1  0  0  0
 18 32  1  0  0  0
 19 20  1  0  0  0
 19 33  1  0  0  0
 19 34  1  0  0  0
 20 35  1  0  0  0
 20 36  1  0  0  0
M  END
> <s_m_entry_id>
258

> <s_m_entry_name>
glide-dock_SP_comt_chembl_pv.257

> <s_m_Source_Path>
/home/csk/Desktop/cluster/DUD-E-result/comt/glide-dock_SP_comt_chembl

> <s_m_Source_File>
glide-dock_SP_comt_chembl_pv.maegz

> <i_m_Source_File_Index>
257

> <chembl_id>
CHEMBL4174117

> <chembl_pref_name>
None

> <i_lp_mmshare_version>
53161

> <i_f3d_flags>
0

> <r_lp_tautomer_probability>
1

> <s_lp_Force_Field>
OPLS_2005

> <r_lp_Energy>
17.263358

> <b_lp_Chiralities_Consistent>
1

> <s_lp_Variant>
CHEMBL2023_lig76-1

> <s_i_glide_gridfile>
glide-grid_3bwm

> <i_i_glide_lignum>
98

> <i_i_glide_rotatable_bonds>
3

> <r_i_docking_score>
-7.57975039670273

> <r_i_glide_ligand_efficiency>
-0.378987519835137

> <r_i_glide_ligand_efficiency_sa>
-1.02873039928284

> <r_i_glide_ligand_efficiency_ln>
-1.89696152739507

> <r_i_glide_gscore>
-7.57975039670273

> <r_i_glide_lipo>
-0.625906392819509

> <r_i_glide_hbond>
-0.324175821587816

> <r_i_glide_metal>
-2.3

> <r_i_glide_rewards>
-0.192815180053711

> <r_i_glide_evdw>
-16.8318271636963

> <r_i_glide_ecoul>
-24.3318920135498

> <r_i_glide_erotb>
0.42717695391256

> <r_i_glide_esite>
-0.0726547959369754

> <r_i_glide_emodel>
-56.2926961969136

> <r_i_glide_energy>
-41.1637191772461

> <r_i_glide_einternal>
6.42466306686401

> <i_i_glide_confnum>
29

> <i_i_glide_posenum>
384

> <r_i_glide_eff_state_penalty>
0

> <s_user_duplicate_titles>
CHEMBL2023_lig76,CHEMBL2023_lig76,CHEMBL2023_lig76,CHEMBL2023_lig76,CHEMBL2023_lig76

> <s_m_subgroup_title>
glide-dock_SP_comt_chembl_pv

> <s_m_subgroupid>
glide-dock_SP_comt_chembl_pv

> <b_m_subgroup_collapsed>
1

$$$$
CHEMBL2023_lig45
                    3D
 Schrodinger Suite 2021-1.
 31 33  0  0  1  0            999 V2000
   -3.5836  -11.7619  -20.1583 C   0  0  0  0  0  0
   -4.0501  -12.0117  -18.8124 N   0  3  0  0  0  0
   -4.0151  -13.2990  -18.3835 C   0  0  0  0  0  0
   -4.4237  -13.6220  -17.0791 C   0  0  0  0  0  0
   -4.8466  -12.5934  -16.2215 C   0  0  0  0  0  0
   -4.8536  -11.2662  -16.6784 C   0  0  0  0  0  0
   -4.4540  -10.9888  -18.0100 C   0  0  0  0  0  0
   -5.2551  -12.8759  -14.9508 O   0  0  0  0  0  0
   -5.2535  -10.2863  -15.8294 O   0  5  0  0  0  0
   -2.4541  -12.3788  -20.5703 N   0  0  0  0  0  0
   -2.0148  -12.1831  -21.8257 C   0  0  0  0  0  0
   -2.7052  -11.3939  -22.7557 C   0  0  0  0  0  0
   -3.9095  -10.7738  -22.3702 C   0  0  0  0  0  0
   -4.3375  -10.9434  -21.0319 C   0  0  0  0  0  0
   -4.6946  -10.0268  -23.3655 C   0  0  0  0  0  0
   -6.0810  -10.2454  -23.5174 C   0  0  0  0  0  0
   -6.8467   -9.6296  -24.4421 N   0  0  0  0  0  0
   -6.2493   -8.7555  -25.2767 C   0  0  0  0  0  0
   -4.8747   -8.4612  -25.2228 C   0  0  0  0  0  0
   -4.0895   -9.1058  -24.2488 C   0  0  0  0  0  0
   -3.6818  -14.0479  -19.0874 H   0  0  0  0  0  0
   -4.4266  -14.6501  -16.7443 H   0  0  0  0  0  0
   -4.4331   -9.9941  -18.4316 H   0  0  0  0  0  0
   -5.6749  -13.7420  -14.9513 H   0  0  0  0  0  0
   -1.1000  -12.6865  -22.1012 H   0  0  0  0  0  0
   -2.3285  -11.2991  -23.7638 H   0  0  0  0  0  0
   -5.2532  -10.4820  -20.6989 H   0  0  0  0  0  0
   -6.5939  -10.9554  -22.8856 H   0  0  0  0  0  0
   -6.8844   -8.2769  -26.0075 H   0  0  0  0  0  0
   -4.4350   -7.7533  -25.9096 H   0  0  0  0  0  0
   -3.0311   -8.8982  -24.1879 H   0  0  0  0  0  0
  1 10  2  0  0  0
  1 14  1  0  0  0
  1  2  1  0  0  0
  2  3  2  0  0  0
  2  7  1  0  0  0
  3  4  1  0  0  0
  3 21  1  0  0  0
  4 22  1  0  0  0
  4  5  2  0  0  0
  5  6  1  0  0  0
  5  8  1  0  0  0
  6  7  2  0  0  0
  6  9  1  0  0  0
  7 23  1  0  0  0
  8 24  1  0  0  0
 10 11  1  0  0  0
 11 12  2  0  0  0
 11 25  1  0  0  0
 12 13  1  0  0  0
 12 26  1  0  0  0
 13 14  2  0  0  0
 13 15  1  0  0  0
 14 27  1  0  0  0
 15 16  2  0  0  0
 15 20  1  0  0  0
 16 17  1  0  0  0
 16 28  1  0  0  0
 17 18  2  0  0  0
 18 19  1  0  0  0
 18 29  1  0  0  0
 19 20  2  0  0  0
 19 30  1  0  0  0
 20 31  1  0  0  0
M  CHG  2   2   1   9  -1
M  END
> <s_m_entry_id>
264

> <s_m_entry_name>
glide-dock_SP_comt_chembl_pv.263

> <s_m_Source_Path>
/home/csk/Desktop/cluster/DUD-E-result/comt/glide-dock_SP_comt_chembl

> <s_m_Source_File>
glide-dock_SP_comt_chembl_pv.maegz

> <i_m_Source_File_Index>
263

> <chembl_id>
CHEMBL3798113

> <chembl_pref_name>
None

> <i_lp_mmshare_version>
53161

> <i_f3d_flags>
0

> <r_lp_tautomer_probability>
0.995892618013405

> <s_lp_Force_Field>
OPLS_2005

> <r_lp_Energy>
15.940404

> <b_lp_Chiralities_Consistent>
1

> <s_lp_Variant>
CHEMBL2023_lig45-1

> <s_i_glide_gridfile>
glide-grid_3bwm

> <i_i_glide_lignum>
57

> <i_i_glide_rotatable_bonds>
3

> <r_i_docking_score>
-7.54127298094026

> <r_i_glide_ligand_efficiency>
-0.377063649047013

> <r_i_glide_ligand_efficiency_sa>
-1.02350821052872

> <r_i_glide_ligand_efficiency_ln>
-1.88733189929982

> <r_i_glide_gscore>
-7.54127298094026

> <r_i_glide_lipo>
-0.560233709818687

> <r_i_glide_hbond>
0

> <r_i_glide_metal>
-2.23343135651619

> <r_i_glide_rewards>
-1.90045404545454

> <r_i_glide_evdw>
-15.7371892929077

> <r_i_glide_ecoul>
-17.1067085266113

> <r_i_glide_erotb>
0.505711874486251

> <r_i_glide_esite>
0

> <r_i_glide_emodel>
-67.2280462323401

> <r_i_glide_energy>
-32.843897819519

> <r_i_glide_einternal>
2.57782316207886

> <i_i_glide_confnum>
2

> <i_i_glide_posenum>
286

> <r_i_glide_eff_state_penalty>
0

> <s_user_duplicate_titles>
CHEMBL2023_lig45,CHEMBL2023_lig45,CHEMBL2023_lig45

> <s_m_subgroup_title>
glide-dock_SP_comt_chembl_pv

> <s_m_subgroupid>
glide-dock_SP_comt_chembl_pv

> <b_m_subgroup_collapsed>
1

$$$$
CHEMBL2023_lig46
                    3D
 Schrodinger Suite 2021-1.
 31 33  0  0  1  0            999 V2000
   -3.5855  -11.7541  -20.1623 C   0  0  0  0  0  0
   -4.0558  -12.0075  -18.8170 N   0  3  0  0  0  0
   -4.0259  -13.2957  -18.3901 C   0  0  0  0  0  0
   -4.4344  -13.6202  -17.0851 C   0  0  0  0  0  0
   -4.8531  -12.5930  -16.2230 C   0  0  0  0  0  0
   -4.8528  -11.2654  -16.6790 C   0  0  0  0  0  0
   -4.4540  -10.9858  -18.0107 C   0  0  0  0  0  0
   -5.2540  -12.8762  -14.9503 O   0  0  0  0  0  0
   -5.2505  -10.2860  -15.8230 O   0  5  0  0  0  0
   -2.4540  -12.3707  -20.5713 N   0  0  0  0  0  0
   -2.0062  -12.1692  -21.8230 C   0  0  0  0  0  0
   -2.6865  -11.3703  -22.7511 C   0  0  0  0  0  0
   -3.8921  -10.7488  -22.3706 C   0  0  0  0  0  0
   -4.3330  -10.9293  -21.0367 C   0  0  0  0  0  0
   -4.6645   -9.9938  -23.3722 C   0  0  0  0  0  0
   -4.0349   -9.1081  -24.2735 C   0  0  0  0  0  0
   -4.8104   -8.4606  -25.2541 C   0  0  0  0  0  0
   -6.1397   -8.6431  -25.3840 N   0  0  0  0  0  0
   -6.7443   -9.4860  -24.5233 C   0  0  0  0  0  0
   -6.0553  -10.1781  -23.5092 C   0  0  0  0  0  0
   -3.6944  -14.0438  -19.0956 H   0  0  0  0  0  0
   -4.4372  -14.6491  -16.7527 H   0  0  0  0  0  0
   -4.4296   -9.9900  -18.4293 H   0  0  0  0  0  0
   -5.6742  -13.7425  -14.9492 H   0  0  0  0  0  0
   -1.0913  -12.6741  -22.0958 H   0  0  0  0  0  0
   -2.3027  -11.2685  -23.7560 H   0  0  0  0  0  0
   -5.2540  -10.4703  -20.7109 H   0  0  0  0  0  0
   -2.9716   -8.9269  -24.2228 H   0  0  0  0  0  0
   -4.3493   -7.7795  -25.9540 H   0  0  0  0  0  0
   -7.8092   -9.6164  -24.6475 H   0  0  0  0  0  0
   -6.5906  -10.8530  -22.8583 H   0  0  0  0  0  0
  1 10  2  0  0  0
  1 14  1  0  0  0
  1  2  1  0  0  0
  2  3  2  0  0  0
  2  7  1  0  0  0
  3  4  1  0  0  0
  3 21  1  0  0  0
  4 22  1  0  0  0
  4  5  2  0  0  0
  5  6  1  0  0  0
  5  8  1  0  0  0
  6  7  2  0  0  0
  6  9  1  0  0  0
  7 23  1  0  0  0
  8 24  1  0  0  0
 10 11  1  0  0  0
 11 12  2  0  0  0
 11 25  1  0  0  0
 12 13  1  0  0  0
 12 26  1  0  0  0
 13 14  2  0  0  0
 13 15  1  0  0  0
 14 27  1  0  0  0
 15 16  2  0  0  0
 15 20  1  0  0  0
 16 17  1  0  0  0
 16 28  1  0  0  0
 17 18  2  0  0  0
 17 29  1  0  0  0
 18 19  1  0  0  0
 19 20  2  0  0  0
 19 30  1  0  0  0
 20 31  1  0  0  0
M  CHG  2   2   1   9  -1
M  END
> <s_m_entry_id>
266

> <s_m_entry_name>
glide-dock_SP_comt_chembl_pv.265

> <s_m_Source_Path>
/home/csk/Desktop/cluster/DUD-E-result/comt/glide-dock_SP_comt_chembl

> <s_m_Source_File>
glide-dock_SP_comt_chembl_pv.maegz

> <i_m_Source_File_Index>
265

> <chembl_id>
CHEMBL3797584

> <chembl_pref_name>
None

> <i_lp_mmshare_version>
53161

> <i_f3d_flags>
0

> <r_lp_tautomer_probability>
0.995892618013405

> <s_lp_Force_Field>
OPLS_2005

> <r_lp_Energy>
12.718693

> <b_lp_Chiralities_Consistent>
1

> <s_lp_Variant>
CHEMBL2023_lig46-1

> <s_i_glide_gridfile>
glide-grid_3bwm

> <i_i_glide_lignum>
58

> <i_i_glide_rotatable_bonds>
3

> <r_i_docking_score>
-7.5350731670319

> <r_i_glide_ligand_efficiency>
-0.376753658351595

> <r_i_glide_ligand_efficiency_sa>
-1.02266676632494

> <r_i_glide_ligand_efficiency_ln>
-1.88578029036211

> <r_i_glide_gscore>
-7.5350731670319

> <r_i_glide_lipo>
-0.557483175160461

> <r_i_glide_hbond>
0

> <r_i_glide_metal>
-2.2329724661363

> <r_i_glide_rewards>
-1.90045404545454

> <r_i_glide_evdw>
-15.7094421386719

> <r_i_glide_ecoul>
-17.0960216522217

> <r_i_glide_erotb>
0.505711874486252

> <r_i_glide_esite>
0

> <r_i_glide_emodel>
-67.5170915380233

> <r_i_glide_energy>
-32.8054637908936

> <r_i_glide_einternal>
2.00042176246643

> <i_i_glide_confnum>
2

> <i_i_glide_posenum>
111

> <r_i_glide_eff_state_penalty>
0

> <s_user_duplicate_titles>
CHEMBL2023_lig46,CHEMBL2023_lig46,CHEMBL2023_lig46,CHEMBL2023_lig46,CHEMBL2023_lig46

> <s_m_subgroup_title>
glide-dock_SP_comt_chembl_pv

> <s_m_subgroupid>
glide-dock_SP_comt_chembl_pv

> <b_m_subgroup_collapsed>
1

$$$$
CHEMBL2023_lig33
                    3D
 Schrodinger Suite 2021-1.
 28 30  0  0  1  0            999 V2000
   -2.7084  -14.7471  -19.0230 N   0  0  0  0  0  0
   -2.0882  -15.5361  -19.9166 C   0  0  0  0  0  0
   -2.3710  -15.4860  -21.2878 C   0  0  0  0  0  0
   -3.6100  -13.8328  -19.4452 C   0  0  0  0  0  0
   -4.0540  -12.8526  -18.4776 N   0  3  0  0  0  0
   -3.9663  -11.5436  -18.8254 C   0  0  0  0  0  0
   -4.3932  -10.5476  -17.9355 C   0  0  0  0  0  0
   -4.8540  -10.9287  -16.6642 C   0  0  0  0  0  0
   -4.8540  -12.2899  -16.2791 C   0  0  0  0  0  0
   -4.4540  -13.2510  -17.2380 C   0  0  0  0  0  0
   -5.2991   -9.9672  -15.8230 O   0  0  0  0  0  0
   -5.2540  -12.6860  -15.0230 O   0  5  0  0  0  0
   -4.0339  -13.7691  -20.8093 C   0  0  0  0  0  0
   -3.3723  -14.6104  -21.7412 C   0  0  0  0  0  0
   -3.7204  -14.5894  -23.1057 C   0  0  0  0  0  0
   -4.7469  -13.7419  -23.5594 C   0  0  0  0  0  0
   -5.4310  -12.9216  -22.6451 C   0  0  0  0  0  0
   -5.0827  -12.9363  -21.2814 C   0  0  0  0  0  0
   -1.3502  -16.2227  -19.5278 H   0  0  0  0  0  0
   -1.8518  -16.1417  -21.9726 H   0  0  0  0  0  0
   -3.5747  -11.3146  -19.8059 H   0  0  0  0  0  0
   -4.3656   -9.5082  -18.2296 H   0  0  0  0  0  0
   -4.4583  -14.3142  -17.0393 H   0  0  0  0  0  0
   -5.5084   -9.1376  -16.2372 H   0  0  0  0  0  0
   -3.2095  -15.2315  -23.8084 H   0  0  0  0  0  0
   -5.0161  -13.7283  -24.6059 H   0  0  0  0  0  0
   -6.2286  -12.2785  -22.9901 H   0  0  0  0  0  0
   -5.6563  -12.3043  -20.6200 H   0  0  0  0  0  0
  1  2  2  0  0  0
  1  4  1  0  0  0
  2  3  1  0  0  0
  2 19  1  0  0  0
  3 14  2  0  0  0
  3 20  1  0  0  0
  4 13  2  0  0  0
  4  5  1  0  0  0
  5  6  2  0  0  0
  5 10  1  0  0  0
  6  7  1  0  0  0
  6 21  1  0  0  0
  7 22  1  0  0  0
  7  8  2  0  0  0
  8  9  1  0  0  0
  8 11  1  0  0  0
  9 10  2  0  0  0
  9 12  1  0  0  0
 10 23  1  0  0  0
 11 24  1  0  0  0
 13 14  1  0  0  0
 13 18  1  0  0  0
 14 15  1  0  0  0
 15 16  2  0  0  0
 15 25  1  0  0  0
 16 17  1  0  0  0
 16 26  1  0  0  0
 17 18  2  0  0  0
 17 27  1  0  0  0
 18 28  1  0  0  0
M  CHG  2   5   1  12  -1
M  END
> <s_m_entry_id>
267

> <s_m_entry_name>
glide-dock_SP_comt_chembl_pv.266

> <s_m_Source_Path>
/home/csk/Desktop/cluster/DUD-E-result/comt/glide-dock_SP_comt_chembl

> <s_m_Source_File>
glide-dock_SP_comt_chembl_pv.maegz

> <i_m_Source_File_Index>
266

> <chembl_id>
CHEMBL3797305

> <chembl_pref_name>
None

> <i_lp_mmshare_version>
53161

> <i_f3d_flags>
0

> <r_lp_tautomer_probability>
0.995892618013405

> <s_lp_Force_Field>
OPLS_2005

> <r_lp_Energy>
17.351373

> <b_lp_Chiralities_Consistent>
1

> <s_lp_Variant>
CHEMBL2023_lig33-1

> <s_i_glide_gridfile>
glide-grid_3bwm

> <i_i_glide_lignum>
45

> <i_i_glide_rotatable_bonds>
2

> <r_i_docking_score>
-7.51551923317876

> <r_i_glide_ligand_efficiency>
-0.417528846287709

> <r_i_glide_ligand_efficiency_sa>
-1.09423512968823

> <r_i_glide_ligand_efficiency_ln>
-1.93182546576037

> <r_i_glide_gscore>
-7.51551923317876

> <r_i_glide_lipo>
-0.310099451401798

> <r_i_glide_hbond>
-0.098430619849222

> <r_i_glide_metal>
-2.3

> <r_i_glide_rewards>
-2.08471772727273

> <r_i_glide_evdw>
-17.5569705963135

> <r_i_glide_ecoul>
-14.3230457305908

> <r_i_glide_erotb>
0.304033954749289

> <r_i_glide_esite>
0

> <r_i_glide_emodel>
-64.7333766078988

> <r_i_glide_energy>
-31.8800163269043

> <r_i_glide_einternal>
1.88206315040588

> <i_i_glide_confnum>
2

> <i_i_glide_posenum>
247

> <r_i_glide_eff_state_penalty>
0

> <s_user_duplicate_titles>
CHEMBL2023_lig33,CHEMBL2023_lig33,CHEMBL2023_lig33,CHEMBL2023_lig33

> <s_m_subgroup_title>
glide-dock_SP_comt_chembl_pv

> <s_m_subgroupid>
glide-dock_SP_comt_chembl_pv

> <b_m_subgroup_collapsed>
1

$$$$
CHEMBL2023_lig42
                    3D
 Schrodinger Suite 2021-1.
 32 34  0  0  1  0            999 V2000
   -3.5844  -11.7571  -20.1594 C   0  0  0  0  0  0
   -4.0538  -12.0095  -18.8145 N   0  3  0  0  0  0
   -4.0230  -13.2975  -18.3873 C   0  0  0  0  0  0
   -4.4329  -13.6214  -17.0830 C   0  0  0  0  0  0
   -4.8537  -12.5936  -16.2230 C   0  0  0  0  0  0
   -4.8538  -11.2660  -16.6786 C   0  0  0  0  0  0
   -4.4540  -10.9872  -18.0099 C   0  0  0  0  0  0
   -5.2540  -12.8763  -14.9501 O   0  0  0  0  0  0
   -5.2517  -10.2860  -15.8230 O   0  5  0  0  0  0
   -2.4540  -12.3741  -20.5700 N   0  0  0  0  0  0
   -2.0097  -12.1738  -21.8230 C   0  0  0  0  0  0
   -2.6940  -11.3776  -22.7514 C   0  0  0  0  0  0
   -3.8986  -10.7564  -22.3682 C   0  0  0  0  0  0
   -4.3343  -10.9337  -21.0327 C   0  0  0  0  0  0
   -4.6789  -10.0054  -23.3663 C   0  0  0  0  0  0
   -6.0646  -10.2318  -23.5066 C   0  0  0  0  0  0
   -6.8157   -9.5646  -24.4941 C   0  0  0  0  0  0
   -6.1794   -8.6519  -25.3622 C   0  0  0  0  0  0
   -4.7969   -8.4191  -25.2338 C   0  0  0  0  0  0
   -4.0541   -9.0902  -24.2430 C   0  0  0  0  0  0
   -8.5083   -9.8861  -24.6230 Cl  0  0  0  0  0  0
   -7.0709   -7.8066  -26.5760 Cl  0  0  0  0  0  0
   -3.6900  -14.0458  -19.0920 H   0  0  0  0  0  0
   -4.4344  -14.6499  -16.7494 H   0  0  0  0  0  0
   -4.4297   -9.9917  -18.4293 H   0  0  0  0  0  0
   -5.6739  -13.7428  -14.9485 H   0  0  0  0  0  0
   -1.0952  -12.6785  -22.0976 H   0  0  0  0  0  0
   -2.3126  -11.2788  -23.7575 H   0  0  0  0  0  0
   -5.2540  -10.4750  -20.7031 H   0  0  0  0  0  0
   -6.5609  -10.9383  -22.8577 H   0  0  0  0  0  0
   -4.3046   -7.7203  -25.8943 H   0  0  0  0  0  0
   -2.9938   -8.9004  -24.1612 H   0  0  0  0  0  0
  1 10  2  0  0  0
  1 14  1  0  0  0
  1  2  1  0  0  0
  2  3  2  0  0  0
  2  7  1  0  0  0
  3  4  1  0  0  0
  3 23  1  0  0  0
  4 24  1  0  0  0
  4  5  2  0  0  0
  5  6  1  0  0  0
  5  8  1  0  0  0
  6  7  2  0  0  0
  6  9  1  0  0  0
  7 25  1  0  0  0
  8 26  1  0  0  0
 10 11  1  0  0  0
 11 12  2  0  0  0
 11 27  1  0  0  0
 12 13  1  0  0  0
 12 28  1  0  0  0
 13 14  2  0  0  0
 13 15  1  0  0  0
 14 29  1  0  0  0
 15 16  2  0  0  0
 15 20  1  0  0  0
 16 17  1  0  0  0
 16 30  1  0  0  0
 17 18  2  0  0  0
 17 21  1  0  0  0
 18 19  1  0  0  0
 18 22  1  0  0  0
 19 20  2  0  0  0
 19 31  1  0  0  0
 20 32  1  0  0  0
M  CHG  2   2   1   9  -1
M  END
> <s_m_entry_id>
281

> <s_m_entry_name>
glide-dock_SP_comt_chembl_pv.280

> <s_m_Source_Path>
/home/csk/Desktop/cluster/DUD-E-result/comt/glide-dock_SP_comt_chembl

> <s_m_Source_File>
glide-dock_SP_comt_chembl_pv.maegz

> <i_m_Source_File_Index>
280

> <chembl_id>
CHEMBL3798524

> <chembl_pref_name>
None

> <i_lp_mmshare_version>
53161

> <i_f3d_flags>
0

> <r_lp_tautomer_probability>
0.995892618013405

> <s_lp_Force_Field>
OPLS_2005

> <r_lp_Energy>
18.806359

> <b_lp_Chiralities_Consistent>
1

> <s_lp_Variant>
CHEMBL2023_lig42-1

> <s_i_glide_gridfile>
glide-grid_3bwm

> <i_i_glide_lignum>
54

> <i_i_glide_rotatable_bonds>
3

> <r_i_docking_score>
-7.41905755480968

> <r_i_glide_ligand_efficiency>
-0.337229888854985

> <r_i_glide_ligand_efficiency_sa>
-0.944931411070606

> <r_i_glide_ligand_efficiency_ln>
-1.81348828309504

> <r_i_glide_gscore>
-7.41905755480968

> <r_i_glide_lipo>
-0.6417087963175

> <r_i_glide_hbond>
0

> <r_i_glide_metal>
-2.23299249116812

> <r_i_glide_rewards>
-1.43748954545455

> <r_i_glide_evdw>
-17.6520462036133

> <r_i_glide_ecoul>
-17.0919513702393

> <r_i_glide_erotb>
0.339528293847036

> <r_i_glide_esite>
0

> <r_i_glide_emodel>
-69.8125104277884

> <r_i_glide_energy>
-34.7439975738525

> <r_i_glide_einternal>
2.58339548110962

> <i_i_glide_confnum>
3

> <i_i_glide_posenum>
244

> <r_i_glide_eff_state_penalty>
0

> <s_user_duplicate_titles>
CHEMBL2023_lig42,CHEMBL2023_lig42,CHEMBL2023_lig42

> <s_m_subgroup_title>
glide-dock_SP_comt_chembl_pv

> <s_m_subgroupid>
glide-dock_SP_comt_chembl_pv

> <b_m_subgroup_collapsed>
1

$$$$
CHEMBL2023_lig96 
                    3D
 Schrodinger Suite 2021-1.
 41 43  0  0  1  0            999 V2000
   -4.8122  -12.3639  -16.1956 C   0  0  0  0  0  0
   -4.2994  -13.3669  -17.0437 C   0  0  0  0  0  0
   -4.4975  -10.7590  -17.9903 C   0  0  0  0  0  0
   -4.8540  -11.0361  -16.6580 C   0  0  0  0  0  0
   -4.0646  -11.8158  -18.8191 C   0  0  0  0  0  0
   -3.9158  -13.0731  -18.3118 N   0  3  0  0  0  0
   -3.3350  -14.1624  -19.1424 C   0  0  0  0  0  0
   -2.9543  -13.7357  -20.5782 C   0  0  0  0  0  0
   -3.9300  -12.7850  -21.0895 N   0  0  1  0  0  0
   -3.7921  -11.5704  -20.2912 C   0  0  0  0  0  0
   -5.2649  -10.0433  -15.8230 O   0  0  0  0  0  0
   -5.2540  -12.6860  -14.9422 O   0  5  0  0  0  0
   -3.6854  -12.5054  -22.5039 C   0  0  0  0  0  0
   -4.7833  -11.6623  -23.1421 C   0  0  0  0  0  0
   -4.5550  -10.3397  -23.6022 C   0  0  0  0  0  0
   -5.6197   -9.6071  -24.1701 C   0  0  0  0  0  0
   -6.9077  -10.1689  -24.2695 C   0  0  0  0  0  0
   -7.1296  -11.4853  -23.8230 C   0  0  0  0  0  0
   -6.0721  -12.2254  -23.2625 C   0  0  0  0  0  0
   -3.1914   -9.6802  -23.4929 C   0  0  0  0  0  0
   -8.0489   -9.3580  -24.8486 C   0  0  0  0  0  0
   -4.2148  -14.4003  -16.7386 H   0  0  0  0  0  0
   -4.5893   -9.7584  -18.3887 H   0  0  0  0  0  0
   -4.0540  -14.9764  -19.1624 H   0  0  0  0  0  0
   -2.4540  -14.5374  -18.6230 H   0  0  0  0  0  0
   -2.9174  -14.6197  -21.2166 H   0  0  0  0  0  0
   -1.9592  -13.2904  -20.6081 H   0  0  0  0  0  0
   -2.7942  -11.1433  -20.4034 H   0  0  0  0  0  0
   -4.5024  -10.8209  -20.6437 H   0  0  0  0  0  0
   -5.5254   -9.2395  -16.2582 H   0  0  0  0  0  0
   -3.6575  -13.4503  -23.0486 H   0  0  0  0  0  0
   -2.7020  -12.0549  -22.6367 H   0  0  0  0  0  0
   -5.4531   -8.5981  -24.5190 H   0  0  0  0  0  0
   -8.1129  -11.9253  -23.8971 H   0  0  0  0  0  0
   -6.2537  -13.2301  -22.9103 H   0  0  0  0  0  0
   -3.2209   -8.6475  -23.8425 H   0  0  0  0  0  0
   -2.8518   -9.6675  -22.4577 H   0  0  0  0  0  0
   -2.4589  -10.2161  -24.0969 H   0  0  0  0  0  0
   -9.0042   -9.6726  -24.4269 H   0  0  0  0  0  0
   -7.9215   -8.2972  -24.6299 H   0  0  0  0  0  0
   -8.0910   -9.4843  -25.9305 H   0  0  0  0  0  0
  1  2  2  0  0  0
  1 12  1  0  0  0
  1  4  1  0  0  0
  2  6  1  0  0  0
  2 22  1  0  0  0
  3 23  1  0  0  0
  3  5  1  0  0  0
  3  4  2  0  0  0
  4 11  1  0  0  0
  5 10  1  0  0  0
  5  6  2  0  0  0
  6  7  1  0  0  0
  7  8  1  0  0  0
  7 24  1  0  0  0
  7 25  1  0  0  0
  8  9  1  0  0  0
  8 26  1  0  0  0
  8 27  1  0  0  0
  9 10  1  0  0  0
  9 13  1  0  0  0
 10 28  1  0  0  0
 10 29  1  0  0  0
 11 30  1  0  0  0
 13 14  1  0  0  0
 13 31  1  0  0  0
 13 32  1  0  0  0
 14 15  2  0  0  0
 14 19  1  0  0  0
 15 16  1  0  0  0
 15 20  1  0  0  0
 16 17  2  0  0  0
 16 33  1  0  0  0
 17 18  1  0  0  0
 17 21  1  0  0  0
 18 19  2  0  0  0
 18 34  1  0  0  0
 19 35  1  0  0  0
 20 36  1  0  0  0
 20 37  1  0  0  0
 20 38  1  0  0  0
 21 39  1  0  0  0
 21 40  1  0  0  0
 21 41  1  0  0  0
M  CHG  2   6   1  12  -1
M  END
> <s_m_entry_id>
284

> <s_m_entry_name>
glide-dock_SP_comt_chembl_pv.283

> <s_m_Source_Path>
/home/csk/Desktop/cluster/DUD-E-result/comt/glide-dock_SP_comt_chembl

> <s_m_Source_File>
glide-dock_SP_comt_chembl_pv.maegz

> <i_m_Source_File_Index>
283

> <chembl_id>
CHEMBL4458006

> <chembl_pref_name>
None

> <i_lp_mmshare_version>
53161

> <i_f3d_flags>
0

> <r_lp_tautomer_probability>
0.995892618013405

> <s_lp_Force_Field>
OPLS_2005

> <r_lp_Energy>
16.206142

> <b_lp_Chiralities_Consistent>
1

> <s_lp_Variant>
CHEMBL2023_lig96 -1

> <s_i_glide_gridfile>
glide-grid_3bwm

> <i_i_glide_lignum>
118

> <i_i_glide_rotatable_bonds>
3

> <r_i_docking_score>
-7.40855525290604

> <r_i_glide_ligand_efficiency>
-0.352788345376478

> <r_i_glide_ligand_efficiency_sa>
-0.973316294216897

> <r_i_glide_ligand_efficiency_ln>
-1.83175031588554

> <r_i_glide_gscore>
-7.40855525290604

> <r_i_glide_lipo>
-0.776189950832877

> <r_i_glide_hbond>
-0.109620732159827

> <r_i_glide_metal>
-2.3

> <r_i_glide_rewards>
-1.77032113636364

> <r_i_glide_evdw>
-20.1521434783936

> <r_i_glide_ecoul>
-12.6210470199585

> <r_i_glide_erotb>
0.448340793363749

> <r_i_glide_esite>
0

> <r_i_glide_emodel>
-67.2643711574437

> <r_i_glide_energy>
-32.7731904983521

> <r_i_glide_einternal>
0.653821110725403

> <i_i_glide_confnum>
2

> <i_i_glide_posenum>
124

> <r_i_glide_eff_state_penalty>
0

> <s_user_duplicate_titles>
CHEMBL2023_lig96 ,CHEMBL2023_lig96 ,CHEMBL2023_lig96 ,CHEMBL2023_lig96 ,CHEMBL2023_lig96 

> <s_m_subgroup_title>
glide-dock_SP_comt_chembl_pv

> <s_m_subgroupid>
glide-dock_SP_comt_chembl_pv

> <b_m_subgroup_collapsed>
1

$$$$
CHEMBL2023_lig4
                    3D
 Schrodinger Suite 2021-1.
 54 55  0  0  1  0            999 V2000
   -4.8501  -10.9956  -16.6844 C   0  0  0  0  0  0
   -4.8422  -12.3434  -16.2860 C   0  0  0  0  0  0
   -4.4080  -13.3287  -17.1912 C   0  0  0  0  0  0
   -4.3603  -10.6006  -17.9470 C   0  0  0  0  0  0
   -3.8969  -11.5944  -18.8470 C   0  0  0  0  0  0
   -3.9432  -12.9593  -18.4711 C   0  0  0  0  0  0
   -3.5253  -13.9541  -19.3777 C   0  0  0  0  0  0
   -3.0230  -13.6217  -20.6578 C   0  0  0  0  0  0
   -2.9818  -12.2478  -21.0370 C   0  0  0  0  0  0
   -3.4057  -11.2619  -20.1260 C   0  0  0  0  0  0
   -5.3452  -10.0701  -15.8230 O   0  0  0  0  0  0
   -5.2540  -12.6860  -15.0233 O   0  0  0  0  0  0
   -4.3260   -9.1663  -18.2789 N   0  3  0  0  0  0
   -5.3576   -8.5206  -18.1340 O   0  0  0  0  0  0
   -3.2541   -8.6860  -18.6230 O   0  5  0  0  0  0
   -2.4231  -11.7886  -22.3606 C   0  0  0  0  0  0
   -1.2346  -12.0115  -22.5963 O   0  0  0  0  0  0
   -3.2418  -11.1283  -23.2236 N   0  0  0  0  0  0
   -2.7030  -10.5784  -24.4765 C   0  0  0  0  0  0
   -4.6942  -10.9324  -23.0504 C   0  0  0  0  0  0
   -5.4964  -12.2194  -23.2925 C   0  0  0  0  0  0
   -2.0776   -9.1930  -24.2550 C   0  0  0  0  0  0
   -2.6480  -14.7085  -21.6412 C   0  0  0  0  0  0
   -1.6584  -15.5965  -21.3478 N   0  0  0  0  0  0
   -3.2106  -14.7042  -22.7374 O   0  0  0  0  0  0
   -1.0447  -16.3843  -22.4295 C   0  0  0  0  0  0
   -1.0889  -15.8861  -20.0235 C   0  0  0  0  0  0
   -0.0761  -15.5374  -23.2708 C   0  0  0  0  0  0
   -1.6826  -17.1664  -19.4228 C   0  0  0  0  0  0
   -4.4323  -14.3701  -16.9004 H   0  0  0  0  0  0
   -3.6050  -14.9893  -19.0831 H   0  0  0  0  0  0
   -3.3520  -10.2334  -20.4476 H   0  0  0  0  0  0
   -5.6009   -9.2503  -16.2405 H   0  0  0  0  0  0
   -5.6444  -13.5668  -15.0579 H   0  0  0  0  0  0
   -3.4830  -10.5118  -25.2360 H   0  0  0  0  0  0
   -1.9593  -11.2539  -24.9032 H   0  0  0  0  0  0
   -4.9328  -10.5266  -22.0697 H   0  0  0  0  0  0
   -5.0524  -10.1666  -23.7397 H   0  0  0  0  0  0
   -6.5668  -12.0157  -23.2564 H   0  0  0  0  0  0
   -5.2715  -12.6479  -24.2697 H   0  0  0  0  0  0
   -5.2870  -12.9755  -22.5368 H   0  0  0  0  0  0
   -1.7001   -8.7851  -25.1928 H   0  0  0  0  0  0
   -1.2416   -9.2405  -23.5565 H   0  0  0  0  0  0
   -2.8091   -8.4883  -23.8577 H   0  0  0  0  0  0
   -0.5010  -17.2393  -22.0264 H   0  0  0  0  0  0
   -1.8171  -16.8160  -23.0689 H   0  0  0  0  0  0
   -0.0048  -15.9807  -20.1040 H   0  0  0  0  0  0
   -1.2540  -15.0860  -19.3120 H   0  0  0  0  0  0
    0.3943  -16.1432  -24.0453 H   0  0  0  0  0  0
   -0.5881  -14.7116  -23.7660 H   0  0  0  0  0  0
    0.7166  -15.1151  -22.6525 H   0  0  0  0  0  0
   -1.2540  -17.3624  -18.4402 H   0  0  0  0  0  0
   -2.7614  -17.0860  -19.3028 H   0  0  0  0  0  0
   -1.4831  -18.0384  -20.0454 H   0  0  0  0  0  0
  1  2  2  0  0  0
  1  4  1  0  0  0
  1 11  1  0  0  0
  2  3  1  0  0  0
  2 12  1  0  0  0
  3  6  2  0  0  0
  3 30  1  0  0  0
  4  5  2  0  0  0
  4 13  1  0  0  0
  5  6  1  0  0  0
  5 10  1  0  0  0
  6  7  1  0  0  0
  7  8  2  0  0  0
  7 31  1  0  0  0
  8  9  1  0  0  0
  8 23  1  0  0  0
  9 10  2  0  0  0
  9 16  1  0  0  0
 10 32  1  0  0  0
 11 33  1  0  0  0
 12 34  1  0  0  0
 13 14  2  0  0  0
 13 15  1  0  0  0
 16 17  2  0  0  0
 16 18  1  0  0  0
 18 19  1  0  0  0
 18 20  1  0  0  0
 19 22  1  0  0  0
 19 35  1  0  0  0
 19 36  1  0  0  0
 20 21  1  0  0  0
 20 37  1  0  0  0
 20 38  1  0  0  0
 21 39  1  0  0  0
 21 40  1  0  0  0
 21 41  1  0  0  0
 22 42  1  0  0  0
 22 43  1  0  0  0
 22 44  1  0  0  0
 23 24  1  0  0  0
 23 25  2  0  0  0
 24 26  1  0  0  0
 24 27  1  0  0  0
 26 28  1  0  0  0
 26 45  1  0  0  0
 26 46  1  0  0  0
 27 29  1  0  0  0
 27 47  1  0  0  0
 27 48  1  0  0  0
 28 49  1  0  0  0
 28 50  1  0  0  0
 28 51  1  0  0  0
 29 52  1  0  0  0
 29 53  1  0  0  0
 29 54  1  0  0  0
M  CHG  2  13   1  15  -1
M  END
> <s_m_entry_id>
285

> <s_m_entry_name>
glide-dock_SP_comt_chembl_pv.284

> <s_m_Source_Path>
/home/csk/Desktop/cluster/DUD-E-result/comt/glide-dock_SP_comt_chembl

> <s_m_Source_File>
glide-dock_SP_comt_chembl_pv.maegz

> <i_m_Source_File_Index>
284

> <chembl_id>
CHEMBL3818719

> <chembl_pref_name>
None

> <i_lp_mmshare_version>
53161

> <i_f3d_flags>
0

> <r_lp_tautomer_probability>
1

> <s_lp_Force_Field>
OPLS_2005

> <r_lp_Energy>
50.610214

> <b_lp_Chiralities_Consistent>
1

> <s_lp_Variant>
CHEMBL2023_lig4-1

> <s_i_glide_gridfile>
glide-grid_3bwm

> <i_i_glide_lignum>
8

> <i_i_glide_rotatable_bonds>
11

> <r_i_docking_score>
-7.40748100498165

> <r_i_glide_ligand_efficiency>
-0.255430379482126

> <r_i_glide_ligand_efficiency_sa>
-0.784763051793413

> <r_i_glide_ligand_efficiency_ln>
-1.69612531262958

> <r_i_glide_gscore>
-7.40748100498165

> <r_i_glide_lipo>
-0.87153544152122

> <r_i_glide_hbond>
0

> <r_i_glide_metal>
-2.3

> <r_i_glide_rewards>
-0.642896161122564

> <r_i_glide_evdw>
-28.8595104217529

> <r_i_glide_ecoul>
-17.4957523345947

> <r_i_glide_erotb>
0.48252601452949

> <r_i_glide_esite>
-0.0082370455905031

> <r_i_glide_emodel>
-72.2181209712763

> <r_i_glide_energy>
-46.3552627563477

> <r_i_glide_einternal>
4.23481035232544

> <i_i_glide_confnum>
36

> <i_i_glide_posenum>
306

> <r_i_glide_eff_state_penalty>
0

> <s_user_duplicate_titles>
CHEMBL2023_lig4,CHEMBL2023_lig4,CHEMBL2023_lig4,CHEMBL2023_lig4,CHEMBL2023_lig4

> <s_m_subgroup_title>
glide-dock_SP_comt_chembl_pv

> <s_m_subgroupid>
glide-dock_SP_comt_chembl_pv

> <b_m_subgroup_collapsed>
1

$$$$
CHEMBL2023_lig40
                    3D
 Schrodinger Suite 2021-1.
 31 33  0  0  1  0            999 V2000
   -3.7144  -11.7637  -20.2167 C   0  0  0  0  0  0
   -2.5709  -12.4581  -20.6668 C   0  0  0  0  0  0
   -2.1193  -12.2011  -21.9666 C   0  0  0  0  0  0
   -2.7790  -11.3607  -22.7732 N   0  0  0  0  0  0
   -3.8884  -10.7865  -22.3077 C   0  0  0  0  0  0
   -4.3701  -10.9270  -21.0603 N   0  0  0  0  0  0
   -4.6581  -10.0280  -23.3065 C   0  0  0  0  0  0
   -3.9940   -9.1796  -24.2230 C   0  0  0  0  0  0
   -4.7172   -8.5105  -25.2301 C   0  0  0  0  0  0
   -6.1105   -8.6860  -25.3322 C   0  0  0  0  0  0
   -6.7792   -9.5321  -24.4273 C   0  0  0  0  0  0
   -6.0540  -10.2032  -23.4230 C   0  0  0  0  0  0
   -4.1273  -12.0204  -18.8479 N   0  3  0  0  0  0
   -4.0790  -13.3051  -18.4040 C   0  0  0  0  0  0
   -4.4519  -13.6207  -17.0866 C   0  0  0  0  0  0
   -4.8536  -12.5897  -16.2230 C   0  0  0  0  0  0
   -4.8540  -11.2656  -16.6874 C   0  0  0  0  0  0
   -4.4967  -10.9939  -18.0345 C   0  0  0  0  0  0
   -5.2540  -12.8677  -14.9486 O   0  0  0  0  0  0
   -5.2303  -10.2860  -15.8230 O   0  5  0  0  0  0
   -2.0540  -13.1629  -20.0425 H   0  0  0  0  0  0
   -1.2400  -12.6858  -22.3645 H   0  0  0  0  0  0
   -2.9237   -9.0463  -24.1615 H   0  0  0  0  0  0
   -4.2023   -7.8632  -25.9248 H   0  0  0  0  0  0
   -6.6657   -8.1716  -26.1029 H   0  0  0  0  0  0
   -7.8480   -9.6689  -24.5046 H   0  0  0  0  0  0
   -6.5712  -10.8638  -22.7428 H   0  0  0  0  0  0
   -3.8009  -14.0719  -19.1111 H   0  0  0  0  0  0
   -4.4540  -14.6485  -16.7506 H   0  0  0  0  0  0
   -4.4958  -10.0035  -18.4676 H   0  0  0  0  0  0
   -5.6742  -13.7339  -14.9440 H   0  0  0  0  0  0
  1  2  2  0  0  0
  1  6  1  0  0  0
  1 13  1  0  0  0
  2  3  1  0  0  0
  2 21  1  0  0  0
  3  4  2  0  0  0
  3 22  1  0  0  0
  4  5  1  0  0  0
  5  6  2  0  0  0
  5  7  1  0  0  0
  7  8  2  0  0  0
  7 12  1  0  0  0
  8  9  1  0  0  0
  8 23  1  0  0  0
  9 10  2  0  0  0
  9 24  1  0  0  0
 10 11  1  0  0  0
 10 25  1  0  0  0
 11 12  2  0  0  0
 11 26  1  0  0  0
 12 27  1  0  0  0
 13 14  2  0  0  0
 13 18  1  0  0  0
 14 15  1  0  0  0
 14 28  1  0  0  0
 15 29  1  0  0  0
 15 16  2  0  0  0
 16 17  1  0  0  0
 16 19  1  0  0  0
 17 18  2  0  0  0
 17 20  1  0  0  0
 18 30  1  0  0  0
 19 31  1  0  0  0
M  CHG  2  13   1  20  -1
M  END
> <s_m_entry_id>
286

> <s_m_entry_name>
glide-dock_SP_comt_chembl_pv.285

> <s_m_Source_Path>
/home/csk/Desktop/cluster/DUD-E-result/comt/glide-dock_SP_comt_chembl

> <s_m_Source_File>
glide-dock_SP_comt_chembl_pv.maegz

> <i_m_Source_File_Index>
285

> <chembl_id>
CHEMBL3797901

> <chembl_pref_name>
None

> <i_lp_mmshare_version>
53161

> <i_f3d_flags>
0

> <r_lp_tautomer_probability>
0.995892618013405

> <s_lp_Force_Field>
OPLS_2005

> <r_lp_Energy>
12.308105

> <b_lp_Chiralities_Consistent>
1

> <s_lp_Variant>
CHEMBL2023_lig40-1

> <s_i_glide_gridfile>
glide-grid_3bwm

> <i_i_glide_lignum>
52

> <i_i_glide_rotatable_bonds>
3

> <r_i_docking_score>
-7.39650242449544

> <r_i_glide_ligand_efficiency>
-0.369825121224772

> <r_i_glide_ligand_efficiency_sa>
-1.00385982310944

> <r_i_glide_ligand_efficiency_ln>
-1.8511006038742

> <r_i_glide_gscore>
-7.39650242449544

> <r_i_glide_lipo>
-0.613689170523877

> <r_i_glide_hbond>
0

> <r_i_glide_metal>
-2.28051173585056

> <r_i_glide_rewards>
-1.90045404545454

> <r_i_glide_evdw>
-15.5663375854492

> <r_i_glide_ecoul>
-15.5282831192017

> <r_i_glide_erotb>
0.505711874486252

> <r_i_glide_esite>
0

> <r_i_glide_emodel>
-63.6804844450271

> <r_i_glide_energy>
-31.0946207046509

> <r_i_glide_einternal>
3.86876964569092

> <i_i_glide_confnum>
4

> <i_i_glide_posenum>
28

> <r_i_glide_eff_state_penalty>
0

> <s_user_duplicate_titles>
CHEMBL2023_lig40,CHEMBL2023_lig40,CHEMBL2023_lig40,CHEMBL2023_lig40

> <s_m_subgroup_title>
glide-dock_SP_comt_chembl_pv

> <s_m_subgroupid>
glide-dock_SP_comt_chembl_pv

> <b_m_subgroup_collapsed>
1

$$$$
CHEMBL2023_lig97 
                    3D
 Schrodinger Suite 2021-1.
 41 43  0  0  1  0            999 V2000
   -4.8166  -12.3705  -16.1835 C   0  0  0  0  0  0
   -4.3043  -13.3791  -17.0241 C   0  0  0  0  0  0
   -4.4746  -10.7737  -17.9813 C   0  0  0  0  0  0
   -4.8540  -11.0450  -16.6530 C   0  0  0  0  0  0
   -4.0308  -11.8345  -18.8004 C   0  0  0  0  0  0
   -3.9050  -13.0924  -18.2885 N   0  3  0  0  0  0
   -3.3332  -14.1950  -19.1082 C   0  0  0  0  0  0
   -2.9532  -13.7927  -20.5490 C   0  0  0  0  0  0
   -3.8885  -12.8053  -21.0649 N   0  0  1  0  0  0
   -3.7168  -11.5956  -20.2662 C   0  0  0  0  0  0
   -5.2651  -10.0479  -15.8230 O   0  0  0  0  0  0
   -5.2540  -12.6860  -14.9274 O   0  5  0  0  0  0
   -3.6102  -12.5558  -22.4787 C   0  0  0  0  0  0
   -4.5754  -11.5884  -23.1536 C   0  0  0  0  0  0
   -5.9699  -11.8407  -23.2301 C   0  0  0  0  0  0
   -6.8124  -10.9082  -23.8712 C   0  0  0  0  0  0
   -6.2808   -9.7368  -24.4399 C   0  0  0  0  0  0
   -4.8972   -9.4853  -24.3694 C   0  0  0  0  0  0
   -4.0516  -10.4101  -23.7274 C   0  0  0  0  0  0
   -6.5914  -13.0860  -22.6249 C   0  0  0  0  0  0
   -4.3150   -8.2256  -24.9768 C   0  0  0  0  0  0
   -4.2282  -14.4116  -16.7135 H   0  0  0  0  0  0
   -4.5518   -9.7732  -18.3826 H   0  0  0  0  0  0
   -4.0540  -15.0068  -19.1160 H   0  0  0  0  0  0
   -2.4540  -14.5718  -18.5892 H   0  0  0  0  0  0
   -2.9556  -14.6819  -21.1811 H   0  0  0  0  0  0
   -1.9417  -13.3878  -20.5911 H   0  0  0  0  0  0
   -2.7008  -11.2081  -20.3601 H   0  0  0  0  0  0
   -4.3903  -10.8193  -20.6329 H   0  0  0  0  0  0
   -5.5210   -9.2448  -16.2623 H   0  0  0  0  0  0
   -3.6603  -13.4986  -23.0252 H   0  0  0  0  0  0
   -2.5876  -12.1923  -22.5941 H   0  0  0  0  0  0
   -7.8767  -11.0841  -23.9267 H   0  0  0  0  0  0
   -6.9404   -9.0326  -24.9261 H   0  0  0  0  0  0
   -2.9911  -10.2104  -23.6780 H   0  0  0  0  0  0
   -7.6038  -13.2421  -22.9973 H   0  0  0  0  0  0
   -6.0082  -13.9740  -22.8678 H   0  0  0  0  0  0
   -6.6430  -12.9874  -21.5403 H   0  0  0  0  0  0
   -3.6538   -7.7305  -24.2646 H   0  0  0  0  0  0
   -3.7408   -8.4678  -25.8718 H   0  0  0  0  0  0
   -5.0994   -7.5198  -25.2531 H   0  0  0  0  0  0
  1  2  2  0  0  0
  1 12  1  0  0  0
  1  4  1  0  0  0
  2  6  1  0  0  0
  2 22  1  0  0  0
  3 23  1  0  0  0
  3  5  1  0  0  0
  3  4  2  0  0  0
  4 11  1  0  0  0
  5 10  1  0  0  0
  5  6  2  0  0  0
  6  7  1  0  0  0
  7  8  1  0  0  0
  7 24  1  0  0  0
  7 25  1  0  0  0
  8  9  1  0  0  0
  8 26  1  0  0  0
  8 27  1  0  0  0
  9 10  1  0  0  0
  9 13  1  0  0  0
 10 28  1  0  0  0
 10 29  1  0  0  0
 11 30  1  0  0  0
 13 14  1  0  0  0
 13 31  1  0  0  0
 13 32  1  0  0  0
 14 15  2  0  0  0
 14 19  1  0  0  0
 15 16  1  0  0  0
 15 20  1  0  0  0
 16 17  2  0  0  0
 16 33  1  0  0  0
 17 18  1  0  0  0
 17 34  1  0  0  0
 18 19  2  0  0  0
 18 21  1  0  0  0
 19 35  1  0  0  0
 20 36  1  0  0  0
 20 37  1  0  0  0
 20 38  1  0  0  0
 21 39  1  0  0  0
 21 40  1  0  0  0
 21 41  1  0  0  0
M  CHG  2   6   1  12  -1
M  END
> <s_m_entry_id>
287

> <s_m_entry_name>
glide-dock_SP_comt_chembl_pv.286

> <s_m_Source_Path>
/home/csk/Desktop/cluster/DUD-E-result/comt/glide-dock_SP_comt_chembl

> <s_m_Source_File>
glide-dock_SP_comt_chembl_pv.maegz

> <i_m_Source_File_Index>
286

> <chembl_id>
CHEMBL4577912

> <chembl_pref_name>
None

> <i_lp_mmshare_version>
53161

> <i_f3d_flags>
0

> <r_lp_tautomer_probability>
0.995892618013405

> <s_lp_Force_Field>
OPLS_2005

> <r_lp_Energy>
15.910839

> <b_lp_Chiralities_Consistent>
1

> <s_lp_Variant>
CHEMBL2023_lig97 -1

> <s_i_glide_gridfile>
glide-grid_3bwm

> <i_i_glide_lignum>
119

> <i_i_glide_rotatable_bonds>
3

> <r_i_docking_score>
-7.39152065087015

> <r_i_glide_ligand_efficiency>
-0.351977173850959

> <r_i_glide_ligand_efficiency_sa>
-0.971078333486223

> <r_i_glide_ligand_efficiency_ln>
-1.82753854495382

> <r_i_glide_gscore>
-7.39152065087015

> <r_i_glide_lipo>
-0.759978533452948

> <r_i_glide_hbond>
-0.111597821399126

> <r_i_glide_metal>
-2.3

> <r_i_glide_rewards>
-1.77032113636364

> <r_i_glide_evdw>
-19.983081817627

> <r_i_glide_ecoul>
-12.6587324142456

> <r_i_glide_erotb>
0.448340793363749

> <r_i_glide_esite>
0

> <r_i_glide_emodel>
-66.2693159720034

> <r_i_glide_energy>
-32.6418142318726

> <r_i_glide_einternal>
1.73665130138397

> <i_i_glide_confnum>
1

> <i_i_glide_posenum>
269

> <r_i_glide_eff_state_penalty>
0

> <s_user_duplicate_titles>
CHEMBL2023_lig97 ,CHEMBL2023_lig97 ,CHEMBL2023_lig97 ,CHEMBL2023_lig97 

> <s_m_subgroup_title>
glide-dock_SP_comt_chembl_pv

> <s_m_subgroupid>
glide-dock_SP_comt_chembl_pv

> <b_m_subgroup_collapsed>
1

$$$$
CHEMBL2023_lig32
                    3D
 Schrodinger Suite 2021-1.
 28 30  0  0  1  0            999 V2000
   -3.4421  -13.8946  -19.3367 C   0  0  0  0  0  0
   -3.4770  -13.6491  -20.7458 C   0  0  0  0  0  0
   -2.7428  -14.4398  -21.5974 C   0  0  0  0  0  0
   -2.8540  -14.9570  -18.7819 N   0  0  0  0  0  0
   -2.1032  -15.6738  -19.6530 N   0  0  0  0  0  0
   -1.9679  -15.4860  -21.0456 C   0  0  0  0  0  0
   -1.1257  -16.3811  -21.5545 N   0  0  0  0  0  0
   -0.7154  -17.1663  -20.4829 C   0  0  0  0  0  0
   -1.3089  -16.7516  -19.3228 C   0  0  0  0  0  0
    0.2466  -18.2944  -20.6772 C   0  0  0  0  0  0
   -4.0029  -12.8924  -18.4428 N   0  3  0  0  0  0
   -3.9774  -11.5858  -18.8264 C   0  0  0  0  0  0
   -4.4201  -10.5788  -17.9543 C   0  0  0  0  0  0
   -4.8546  -10.9380  -16.6684 C   0  0  0  0  0  0
   -4.8540  -12.2932  -16.2733 C   0  0  0  0  0  0
   -4.4351  -13.2647  -17.2051 C   0  0  0  0  0  0
   -5.2826   -9.9703  -15.8230 O   0  0  0  0  0  0
   -5.2540  -12.6860  -15.0230 O   0  5  0  0  0  0
   -4.0406  -12.8283  -21.1784 H   0  0  0  0  0  0
   -2.7190  -14.2603  -22.6678 H   0  0  0  0  0  0
   -1.2540  -17.1010  -18.3031 H   0  0  0  0  0  0
    0.5990  -18.6854  -19.7223 H   0  0  0  0  0  0
    1.1206  -17.9738  -21.2445 H   0  0  0  0  0  0
   -0.2186  -19.1167  -21.2208 H   0  0  0  0  0  0
   -3.5706  -11.3357  -19.7927 H   0  0  0  0  0  0
   -4.4048   -9.5445  -18.2667 H   0  0  0  0  0  0
   -4.4335  -14.3187  -16.9640 H   0  0  0  0  0  0
   -5.5005   -9.1439  -16.2392 H   0  0  0  0  0  0
  1  2  1  0  0  0
  1  4  2  0  0  0
  1 11  1  0  0  0
  2  3  2  0  0  0
  2 19  1  0  0  0
  3  6  1  0  0  0
  3 20  1  0  0  0
  4  5  1  0  0  0
  5  6  1  0  0  0
  5  9  1  0  0  0
  6  7  2  0  0  0
  7  8  1  0  0  0
  8  9  2  0  0  0
  8 10  1  0  0  0
  9 21  1  0  0  0
 10 22  1  0  0  0
 10 23  1  0  0  0
 10 24  1  0  0  0
 11 12  2  0  0  0
 11 16  1  0  0  0
 12 13  1  0  0  0
 12 25  1  0  0  0
 13 26  1  0  0  0
 13 14  2  0  0  0
 14 15  1  0  0  0
 14 17  1  0  0  0
 15 16  2  0  0  0
 15 18  1  0  0  0
 16 27  1  0  0  0
 17 28  1  0  0  0
M  CHG  2  11   1  18  -1
M  END
> <s_m_entry_id>
290

> <s_m_entry_name>
glide-dock_SP_comt_chembl_pv.289

> <s_m_Source_Path>
/home/csk/Desktop/cluster/DUD-E-result/comt/glide-dock_SP_comt_chembl

> <s_m_Source_File>
glide-dock_SP_comt_chembl_pv.maegz

> <i_m_Source_File_Index>
289

> <chembl_id>
CHEMBL3799278

> <chembl_pref_name>
None

> <i_lp_mmshare_version>
53161

> <i_f3d_flags>
0

> <r_lp_tautomer_probability>
0.995892618013405

> <s_lp_Force_Field>
OPLS_2005

> <r_lp_Energy>
15.663379

> <b_lp_Chiralities_Consistent>
1

> <s_lp_Variant>
CHEMBL2023_lig32-1

> <s_i_glide_gridfile>
glide-grid_3bwm

> <i_i_glide_lignum>
44

> <i_i_glide_rotatable_bonds>
2

> <r_i_docking_score>
-7.38839816881241

> <r_i_glide_ligand_efficiency>
-0.410466564934023

> <r_i_glide_ligand_efficiency_sa>
-1.07572671662491

> <r_i_glide_ligand_efficiency_ln>
-1.89914965165383

> <r_i_glide_gscore>
-7.38839816881241

> <r_i_glide_lipo>
-0.426243649373932

> <r_i_glide_hbond>
-0.0984308561388246

> <r_i_glide_metal>
-2.3

> <r_i_glide_rewards>
-2.05749954545455

> <r_i_glide_evdw>
-21.2879467010498

> <r_i_glide_ecoul>
-11.533766746521

> <r_i_glide_erotb>
0.295535507658463

> <r_i_glide_esite>
-0.00729727847292754

> <r_i_glide_emodel>
-66.3698171837067

> <r_i_glide_energy>
-32.8217134475708

> <r_i_glide_einternal>
1.20625066757202

> <i_i_glide_confnum>
2

> <i_i_glide_posenum>
43

> <r_i_glide_eff_state_penalty>
0

> <s_user_duplicate_titles>
CHEMBL2023_lig32,CHEMBL2023_lig32,CHEMBL2023_lig32,CHEMBL2023_lig32

> <s_m_subgroup_title>
glide-dock_SP_comt_chembl_pv

> <s_m_subgroupid>
glide-dock_SP_comt_chembl_pv

> <b_m_subgroup_collapsed>
1

$$$$
CHEMBL2023_lig83 
                    3D
 Schrodinger Suite 2021-1.
 38 40  0  0  1  0            999 V2000
   -4.8540  -12.5267  -15.9158 C   0  0  0  0  0  0
   -4.3778  -13.6395  -16.6230 C   0  0  0  0  0  0
   -4.4362  -11.1758  -17.8897 C   0  0  0  0  0  0
   -4.8549  -11.2715  -16.5450 C   0  0  0  0  0  0
   -3.9930  -12.3430  -18.5599 C   0  0  0  0  0  0
   -3.9568  -13.5338  -17.8996 N   0  3  0  0  0  0
   -3.4583  -14.7698  -18.5436 C   0  0  0  0  0  0
   -2.8953  -14.5674  -19.9610 C   0  0  0  0  0  0
   -3.6371  -13.5611  -20.7084 N   0  0  1  0  0  0
   -3.5144  -12.2862  -20.0013 C   0  0  0  0  0  0
   -5.2540  -10.1845  -15.8230 O   0  0  0  0  0  0
   -5.2540  -12.6860  -14.6230 O   0  5  0  0  0  0
   -3.0329  -13.4766  -22.0426 C   0  0  0  0  0  0
   -3.8002  -12.5787  -23.0298 C   0  0  0  0  0  0
   -5.2173  -13.0494  -23.2934 C   0  0  0  0  0  0
   -6.3116  -12.2860  -22.8399 C   0  0  0  0  0  0
   -7.6283  -12.7011  -23.1139 C   0  0  0  0  0  0
   -7.8508  -13.8860  -23.8415 C   0  0  0  0  0  0
   -6.7615  -14.6604  -24.2838 C   0  0  0  0  0  0
   -5.4457  -14.2418  -24.0115 C   0  0  0  0  0  0
   -4.3541  -14.6291  -16.1885 H   0  0  0  0  0  0
   -4.4495  -10.2257  -18.4044 H   0  0  0  0  0  0
   -4.2754  -15.4860  -18.5387 H   0  0  0  0  0  0
   -2.6862  -15.1831  -17.8953 H   0  0  0  0  0  0
   -2.9158  -15.5180  -20.4919 H   0  0  0  0  0  0
   -1.8500  -14.2860  -19.9157 H   0  0  0  0  0  0
   -2.4773  -11.9466  -20.0062 H   0  0  0  0  0  0
   -4.1032  -11.5269  -20.5158 H   0  0  0  0  0  0
   -5.4974   -9.4318  -16.3502 H   0  0  0  0  0  0
   -2.9816  -14.4786  -22.4717 H   0  0  0  0  0  0
   -2.0016  -13.1283  -21.9620 H   0  0  0  0  0  0
   -3.2713  -12.5729  -23.9835 H   0  0  0  0  0  0
   -3.8047  -11.5403  -22.6991 H   0  0  0  0  0  0
   -6.1439  -11.3735  -22.2870 H   0  0  0  0  0  0
   -8.4613  -12.1041  -22.7717 H   0  0  0  0  0  0
   -8.8540  -14.2007  -24.0707 H   0  0  0  0  0  0
   -6.9322  -15.5696  -24.8414 H   0  0  0  0  0  0
   -4.6129  -14.8333  -24.3633 H   0  0  0  0  0  0
  1  2  2  0  0  0
  1 12  1  0  0  0
  1  4  1  0  0  0
  2  6  1  0  0  0
  2 21  1  0  0  0
  3 22  1  0  0  0
  3  5  1  0  0  0
  3  4  2  0  0  0
  4 11  1  0  0  0
  5 10  1  0  0  0
  5  6  2  0  0  0
  6  7  1  0  0  0
  7  8  1  0  0  0
  7 23  1  0  0  0
  7 24  1  0  0  0
  8  9  1  0  0  0
  8 25  1  0  0  0
  8 26  1  0  0  0
  9 10  1  0  0  0
  9 13  1  0  0  0
 10 27  1  0  0  0
 10 28  1  0  0  0
 11 29  1  0  0  0
 13 14  1  0  0  0
 13 30  1  0  0  0
 13 31  1  0  0  0
 14 15  1  0  0  0
 14 32  1  0  0  0
 14 33  1  0  0  0
 15 16  2  0  0  0
 15 20  1  0  0  0
 16 17  1  0  0  0
 16 34  1  0  0  0
 17 18  2  0  0  0
 17 35  1  0  0  0
 18 19  1  0  0  0
 18 36  1  0  0  0
 19 20  2  0  0  0
 19 37  1  0  0  0
 20 38  1  0  0  0
M  CHG  2   6   1  12  -1
M  END
> <s_m_entry_id>
292

> <s_m_entry_name>
glide-dock_SP_comt_chembl_pv.291

> <s_m_Source_Path>
/home/csk/Desktop/cluster/DUD-E-result/comt/glide-dock_SP_comt_chembl

> <s_m_Source_File>
glide-dock_SP_comt_chembl_pv.maegz

> <i_m_Source_File_Index>
291

> <chembl_id>
CHEMBL4454788

> <chembl_pref_name>
None

> <i_lp_mmshare_version>
53161

> <i_f3d_flags>
0

> <r_lp_tautomer_probability>
0.995892618013405

> <s_lp_Force_Field>
OPLS_2005

> <r_lp_Energy>
14.707713

> <b_lp_Chiralities_Consistent>
1

> <s_lp_Variant>
CHEMBL2023_lig83 -1

> <s_i_glide_gridfile>
glide-grid_3bwm

> <i_i_glide_lignum>
105

> <i_i_glide_rotatable_bonds>
4

> <r_i_docking_score>
-7.37919532791922

> <r_i_glide_ligand_efficiency>
-0.368959766395961

> <r_i_glide_ligand_efficiency_sa>
-1.00151088871985

> <r_i_glide_ligand_efficiency_ln>
-1.84676920842743

> <r_i_glide_gscore>
-7.37919532791922

> <r_i_glide_lipo>
-0.467615924873667

> <r_i_glide_hbond>
-0.123851523272915

> <r_i_glide_metal>
-2.3

> <r_i_glide_rewards>
-2.31595690909091

> <r_i_glide_evdw>
-12.1902523040771

> <r_i_glide_ecoul>
-15.3097229003906

> <r_i_glide_erotb>
0.734200079580716

> <r_i_glide_esite>
0

> <r_i_glide_emodel>
-59.8719606790448

> <r_i_glide_energy>
-27.4999752044678

> <r_i_glide_einternal>
3.4230055809021

> <i_i_glide_confnum>
7

> <i_i_glide_posenum>
360

> <r_i_glide_eff_state_penalty>
0

> <s_user_duplicate_titles>
CHEMBL2023_lig83 ,CHEMBL2023_lig83 ,CHEMBL2023_lig83 

> <s_m_subgroup_title>
glide-dock_SP_comt_chembl_pv

> <s_m_subgroupid>
glide-dock_SP_comt_chembl_pv

> <b_m_subgroup_collapsed>
1

$$$$
CHEMBL2023_lig88 
                    3D
 Schrodinger Suite 2021-1.
 36 38  0  0  1  0            999 V2000
   -4.8093  -12.3564  -16.2060 C   0  0  0  0  0  0
   -4.2900  -13.3537  -17.0565 C   0  0  0  0  0  0
   -4.4797  -10.7396  -17.9871 C   0  0  0  0  0  0
   -4.8540  -11.0263  -16.6614 C   0  0  0  0  0  0
   -4.0319  -11.7896  -18.8174 C   0  0  0  0  0  0
   -3.8937  -13.0515  -18.3187 N   0  3  0  0  0  0
   -3.3161  -14.1395  -19.1532 C   0  0  0  0  0  0
   -2.9112  -13.7060  -20.5798 C   0  0  0  0  0  0
   -3.8619  -12.7336  -21.0968 N   0  0  1  0  0  0
   -3.7238  -11.5307  -20.2803 C   0  0  0  0  0  0
   -5.2753  -10.0404  -15.8230 O   0  0  0  0  0  0
   -5.2540  -12.6860  -14.9559 O   0  5  0  0  0  0
   -3.5670  -12.4420  -22.4985 C   0  0  0  0  0  0
   -4.6022  -11.5480  -23.1588 C   0  0  0  0  0  0
   -5.9530  -11.9514  -23.2125 C   0  0  0  0  0  0
   -6.9159  -11.1246  -23.8232 C   0  0  0  0  0  0
   -6.5314   -9.8907  -24.3867 C   0  0  0  0  0  0
   -5.1816   -9.4860  -24.3338 C   0  0  0  0  0  0
   -4.2195  -10.3124  -23.7211 C   0  0  0  0  0  0
   -7.5230   -9.0395  -25.0230 C   0  0  0  0  0  0
   -8.3112   -8.3617  -25.5296 N   0  0  0  0  0  0
   -4.2081  -14.3890  -16.7571 H   0  0  0  0  0  0
   -4.5650   -9.7357  -18.3784 H   0  0  0  0  0  0
   -4.0540  -14.9363  -19.1954 H   0  0  0  0  0  0
   -2.4540  -14.5407  -18.6230 H   0  0  0  0  0  0
   -2.8823  -14.5852  -21.2252 H   0  0  0  0  0  0
   -1.9082  -13.2782  -20.5972 H   0  0  0  0  0  0
   -2.7175  -11.1168  -20.3658 H   0  0  0  0  0  0
   -4.4145  -10.7661  -20.6392 H   0  0  0  0  0  0
   -5.5336   -9.2337  -16.2542 H   0  0  0  0  0  0
   -3.5449  -13.3765  -23.0613 H   0  0  0  0  0  0
   -2.5743  -11.9985  -22.5938 H   0  0  0  0  0  0
   -6.2525  -12.8941  -22.7785 H   0  0  0  0  0  0
   -7.9489  -11.4403  -23.8546 H   0  0  0  0  0  0
   -4.8781   -8.5402  -24.7604 H   0  0  0  0  0  0
   -3.1883   -9.9927  -23.6861 H   0  0  0  0  0  0
  1  2  2  0  0  0
  1 12  1  0  0  0
  1  4  1  0  0  0
  2  6  1  0  0  0
  2 22  1  0  0  0
  3 23  1  0  0  0
  3  5  1  0  0  0
  3  4  2  0  0  0
  4 11  1  0  0  0
  5 10  1  0  0  0
  5  6  2  0  0  0
  6  7  1  0  0  0
  7  8  1  0  0  0
  7 24  1  0  0  0
  7 25  1  0  0  0
  8  9  1  0  0  0
  8 26  1  0  0  0
  8 27  1  0  0  0
  9 10  1  0  0  0
  9 13  1  0  0  0
 10 28  1  0  0  0
 10 29  1  0  0  0
 11 30  1  0  0  0
 13 14  1  0  0  0
 13 31  1  0  0  0
 13 32  1  0  0  0
 14 15  2  0  0  0
 14 19  1  0  0  0
 15 16  1  0  0  0
 15 33  1  0  0  0
 16 17  2  0  0  0
 16 34  1  0  0  0
 17 18  1  0  0  0
 17 20  1  0  0  0
 18 19  2  0  0  0
 18 35  1  0  0  0
 19 36  1  0  0  0
 20 21  3  0  0  0
M  CHG  2   6   1  12  -1
M  END
> <s_m_entry_id>
294

> <s_m_entry_name>
glide-dock_SP_comt_chembl_pv.293

> <s_m_Source_Path>
/home/csk/Desktop/cluster/DUD-E-result/comt/glide-dock_SP_comt_chembl

> <s_m_Source_File>
glide-dock_SP_comt_chembl_pv.maegz

> <i_m_Source_File_Index>
293

> <chembl_id>
CHEMBL4566961

> <chembl_pref_name>
None

> <i_lp_mmshare_version>
53161

> <i_f3d_flags>
0

> <r_lp_tautomer_probability>
0.995892618013405

> <s_lp_Force_Field>
OPLS_2005

> <r_lp_Energy>
17.568201

> <b_lp_Chiralities_Consistent>
1

> <s_lp_Variant>
CHEMBL2023_lig88 -1

> <s_i_glide_gridfile>
glide-grid_3bwm

> <i_i_glide_lignum>
110

> <i_i_glide_rotatable_bonds>
3

> <r_i_docking_score>
-7.36532917357451

> <r_i_glide_ligand_efficiency>
-0.350729960646405

> <r_i_glide_ligand_efficiency_sa>
-0.967637366826569

> <r_i_glide_ligand_efficiency_ln>
-1.82106275511734

> <r_i_glide_gscore>
-7.36532917357451

> <r_i_glide_lipo>
-0.69108515897046

> <r_i_glide_hbond>
-0.107777973974502

> <r_i_glide_metal>
-2.3

> <r_i_glide_rewards>
-1.79107363636364

> <r_i_glide_evdw>
-21.6487197875977

> <r_i_glide_ecoul>
-12.3317708969116

> <r_i_glide_erotb>
0.456809219650713

> <r_i_glide_esite>
0

> <r_i_glide_emodel>
-68.7076107182189

> <r_i_glide_energy>
-33.9804906845093

> <r_i_glide_einternal>
0.61180055141449

> <i_i_glide_confnum>
2

> <i_i_glide_posenum>
264

> <r_i_glide_eff_state_penalty>
0

> <s_user_duplicate_titles>
CHEMBL2023_lig88 ,CHEMBL2023_lig88 ,CHEMBL2023_lig88 

> <s_m_subgroup_title>
glide-dock_SP_comt_chembl_pv

> <s_m_subgroupid>
glide-dock_SP_comt_chembl_pv

> <b_m_subgroup_collapsed>
1

$$$$
CHEMBL2023_lig41
                    3D
 Schrodinger Suite 2021-1.
 34 36  0  0  1  0            999 V2000
   -3.5850  -11.7610  -20.1616 C   0  0  0  0  0  0
   -4.0545  -12.0109  -18.8155 N   0  3  0  0  0  0
   -4.0250  -13.2985  -18.3874 C   0  0  0  0  0  0
   -4.4345  -13.6214  -17.0828 C   0  0  0  0  0  0
   -4.8539  -12.5930  -16.2230 C   0  0  0  0  0  0
   -4.8539  -11.2655  -16.6791 C   0  0  0  0  0  0
   -4.4540  -10.9877  -18.0110 C   0  0  0  0  0  0
   -5.2540  -12.8753  -14.9499 O   0  0  0  0  0  0
   -5.2538  -10.2860  -15.8230 O   0  5  0  0  0  0
   -2.4540  -12.3794  -20.5698 N   0  0  0  0  0  0
   -2.0082  -12.1828  -21.8229 C   0  0  0  0  0  0
   -2.6899  -11.3868  -22.7513 C   0  0  0  0  0  0
   -3.8929  -10.7585  -22.3707 C   0  0  0  0  0  0
   -4.3341  -10.9389  -21.0368 C   0  0  0  0  0  0
   -4.6664  -10.0004  -23.3710 C   0  0  0  0  0  0
   -3.9521   -9.1681  -24.1614 N   0  0  0  0  0  0
   -4.5887   -8.4835  -25.1390 C   0  0  0  0  0  0
   -5.9736   -8.6194  -25.3800 C   0  0  0  0  0  0
   -6.7178   -9.4860  -24.5596 C   0  0  0  0  0  0
   -6.0540  -10.1855  -23.5357 C   0  0  0  0  0  0
   -3.7173   -7.5650  -25.9896 C   0  0  0  0  0  0
   -4.4540   -6.8123  -26.8082 F   0  0  0  0  0  0
   -2.8834   -8.2993  -26.7265 F   0  0  0  0  0  0
   -2.9992   -6.7556  -25.2098 F   0  0  0  0  0  0
   -3.6932  -14.0477  -19.0917 H   0  0  0  0  0  0
   -4.4372  -14.6498  -16.7488 H   0  0  0  0  0  0
   -4.4296   -9.9926  -18.4313 H   0  0  0  0  0  0
   -5.6734  -13.7419  -14.9479 H   0  0  0  0  0  0
   -1.0932  -12.6877  -22.0954 H   0  0  0  0  0  0
   -2.3072  -11.2796  -23.7564 H   0  0  0  0  0  0
   -5.2540  -10.4777  -20.7115 H   0  0  0  0  0  0
   -6.4611   -8.0700  -26.1720 H   0  0  0  0  0  0
   -7.7796   -9.6120  -24.7129 H   0  0  0  0  0  0
   -6.6000  -10.8666  -22.9004 H   0  0  0  0  0  0
  1 10  2  0  0  0
  1 14  1  0  0  0
  1  2  1  0  0  0
  2  3  2  0  0  0
  2  7  1  0  0  0
  3  4  1  0  0  0
  3 25  1  0  0  0
  4 26  1  0  0  0
  4  5  2  0  0  0
  5  6  1  0  0  0
  5  8  1  0  0  0
  6  7  2  0  0  0
  6  9  1  0  0  0
  7 27  1  0  0  0
  8 28  1  0  0  0
 10 11  1  0  0  0
 11 12  2  0  0  0
 11 29  1  0  0  0
 12 13  1  0  0  0
 12 30  1  0  0  0
 13 14  2  0  0  0
 13 15  1  0  0  0
 14 31  1  0  0  0
 15 16  2  0  0  0
 15 20  1  0  0  0
 16 17  1  0  0  0
 17 18  2  0  0  0
 17 21  1  0  0  0
 18 19  1  0  0  0
 18 32  1  0  0  0
 19 20  2  0  0  0
 19 33  1  0  0  0
 20 34  1  0  0  0
 21 22  1  0  0  0
 21 23  1  0  0  0
 21 24  1  0  0  0
M  CHG  2   2   1   9  -1
M  END
> <s_m_entry_id>
296

> <s_m_entry_name>
glide-dock_SP_comt_chembl_pv.295

> <s_m_Source_Path>
/home/csk/Desktop/cluster/DUD-E-result/comt/glide-dock_SP_comt_chembl

> <s_m_Source_File>
glide-dock_SP_comt_chembl_pv.maegz

> <i_m_Source_File_Index>
295

> <chembl_id>
CHEMBL3800482

> <chembl_pref_name>
None

> <i_lp_mmshare_version>
53161

> <i_f3d_flags>
0

> <r_lp_tautomer_probability>
0.995892618013405

> <s_lp_Force_Field>
OPLS_2005

> <r_lp_Energy>
16.343984

> <b_lp_Chiralities_Consistent>
1

> <s_lp_Variant>
CHEMBL2023_lig41-1

> <s_i_glide_gridfile>
glide-grid_3bwm

> <i_i_glide_lignum>
53

> <i_i_glide_rotatable_bonds>
4

> <r_i_docking_score>
-7.3591723641801

> <r_i_glide_ligand_efficiency>
-0.306632181840837

> <r_i_glide_ligand_efficiency_sa>
-0.884480264067766

> <r_i_glide_ligand_efficiency_ln>
-1.76138763716389

> <r_i_glide_gscore>
-7.3591723641801

> <r_i_glide_lipo>
-0.576514059586849

> <r_i_glide_hbond>
0

> <r_i_glide_metal>
-2.23856401211291

> <r_i_glide_rewards>
-1.43683152954545

> <r_i_glide_evdw>
-16.9300174713135

> <r_i_glide_ecoul>
-17.3341083526611

> <r_i_glide_erotb>
0.339354363529954

> <r_i_glide_esite>
0

> <r_i_glide_emodel>
-69.3306771501856

> <r_i_glide_energy>
-34.2641258239746

> <r_i_glide_einternal>
2.12544250488281

> <i_i_glide_confnum>
13

> <i_i_glide_posenum>
193

> <r_i_glide_eff_state_penalty>
0

> <s_user_duplicate_titles>
CHEMBL2023_lig41

> <s_m_subgroup_title>
glide-dock_SP_comt_chembl_pv

> <s_m_subgroupid>
glide-dock_SP_comt_chembl_pv

> <b_m_subgroup_collapsed>
1

$$$$
CHEMBL2023_lig84 
                    3D
 Schrodinger Suite 2021-1.
 34 36  0  0  1  0            999 V2000
   -4.8441  -12.3551  -16.1812 C   0  0  0  0  0  0
   -4.3907  -13.3673  -17.0478 C   0  0  0  0  0  0
   -4.4693  -10.7415  -17.9615 C   0  0  0  0  0  0
   -4.8540  -11.0234  -16.6403 C   0  0  0  0  0  0
   -4.0675  -11.7992  -18.7999 C   0  0  0  0  0  0
   -4.0152  -13.0741  -18.3174 N   0  3  0  0  0  0
   -3.5208  -14.1679  -19.1791 C   0  0  0  0  0  0
   -3.7783  -13.8861  -20.6679 C   0  0  0  0  0  0
   -3.1657  -12.6082  -21.0012 N   0  0  2  0  0  0
   -3.8301  -11.5289  -20.2761 C   0  0  0  0  0  0
   -5.2592  -10.0190  -15.8230 O   0  0  0  0  0  0
   -5.2540  -12.6860  -14.9200 O   0  5  0  0  0  0
   -3.1459  -12.3535  -22.4465 C   0  0  0  0  0  0
   -4.5105  -12.1859  -23.1083 C   0  0  0  0  0  0
   -5.2832  -13.3015  -23.4974 C   0  0  0  0  0  0
   -6.5137  -13.2023  -24.0432 N   0  0  0  0  0  0
   -7.0132  -11.9658  -24.2515 C   0  0  0  0  0  0
   -6.3170  -10.7868  -23.9259 C   0  0  0  0  0  0
   -5.0405  -10.9001  -23.3464 C   0  0  0  0  0  0
   -4.3482  -14.4059  -16.7507 H   0  0  0  0  0  0
   -4.5266   -9.7339  -18.3485 H   0  0  0  0  0  0
   -4.0062  -15.0953  -18.8716 H   0  0  0  0  0  0
   -2.4540  -14.2677  -18.9787 H   0  0  0  0  0  0
   -4.8497  -13.8699  -20.8736 H   0  0  0  0  0  0
   -3.3385  -14.6798  -21.2733 H   0  0  0  0  0  0
   -3.2503  -10.6121  -20.3892 H   0  0  0  0  0  0
   -4.8158  -11.3351  -20.6993 H   0  0  0  0  0  0
   -5.5018   -9.2137  -16.2657 H   0  0  0  0  0  0
   -2.6127  -13.1652  -22.9438 H   0  0  0  0  0  0
   -2.5561  -11.4546  -22.6319 H   0  0  0  0  0  0
   -4.9143  -14.3050  -23.3438 H   0  0  0  0  0  0
   -7.9980  -11.9146  -24.6918 H   0  0  0  0  0  0
   -6.7574   -9.8180  -24.1101 H   0  0  0  0  0  0
   -4.4867  -10.0135  -23.0738 H   0  0  0  0  0  0
  1  2  2  0  0  0
  1 12  1  0  0  0
  1  4  1  0  0  0
  2  6  1  0  0  0
  2 20  1  0  0  0
  3 21  1  0  0  0
  3  5  1  0  0  0
  3  4  2  0  0  0
  4 11  1  0  0  0
  5 10  1  0  0  0
  5  6  2  0  0  0
  6  7  1  0  0  0
  7  8  1  0  0  0
  7 22  1  0  0  0
  7 23  1  0  0  0
  8  9  1  0  0  0
  8 24  1  0  0  0
  8 25  1  0  0  0
  9 10  1  0  0  0
  9 13  1  0  0  0
 10 26  1  0  0  0
 10 27  1  0  0  0
 11 28  1  0  0  0
 13 14  1  0  0  0
 13 29  1  0  0  0
 13 30  1  0  0  0
 14 15  2  0  0  0
 14 19  1  0  0  0
 15 16  1  0  0  0
 15 31  1  0  0  0
 16 17  2  0  0  0
 17 18  1  0  0  0
 17 32  1  0  0  0
 18 19  2  0  0  0
 18 33  1  0  0  0
 19 34  1  0  0  0
M  CHG  2   6   1  12  -1
M  END
> <s_m_entry_id>
299

> <s_m_entry_name>
glide-dock_SP_comt_chembl_pv.298

> <s_m_Source_Path>
/home/csk/Desktop/cluster/DUD-E-result/comt/glide-dock_SP_comt_chembl

> <s_m_Source_File>
glide-dock_SP_comt_chembl_pv.maegz

> <i_m_Source_File_Index>
298

> <chembl_id>
CHEMBL4516338

> <chembl_pref_name>
None

> <i_lp_mmshare_version>
53161

> <i_f3d_flags>
0

> <r_lp_tautomer_probability>
0.995892618013405

> <s_lp_Force_Field>
OPLS_2005

> <r_lp_Energy>
13.548093

> <b_lp_Chiralities_Consistent>
1

> <s_lp_Variant>
CHEMBL2023_lig84 -1

> <s_i_glide_gridfile>
glide-grid_3bwm

> <i_i_glide_lignum>
106

> <i_i_glide_rotatable_bonds>
3

> <r_i_docking_score>
-7.35040185545019

> <r_i_glide_ligand_efficiency>
-0.38686325555001

> <r_i_glide_ligand_efficiency_sa>
-1.0323065479264

> <r_i_glide_ligand_efficiency_ln>
-1.86348474251299

> <r_i_glide_gscore>
-7.35040185545019

> <r_i_glide_lipo>
-0.517467618024837

> <r_i_glide_hbond>
-0.112574763989059

> <r_i_glide_metal>
-2.3

> <r_i_glide_rewards>
-1.95485590909091

> <r_i_glide_evdw>
-18.9636650085449

> <r_i_glide_ecoul>
-13.669059753418

> <r_i_glide_erotb>
0.533038649094556

> <r_i_glide_esite>
0

> <r_i_glide_emodel>
-65.041964574509

> <r_i_glide_energy>
-32.6327247619629

> <r_i_glide_einternal>
5.69845342636108

> <i_i_glide_confnum>
3

> <i_i_glide_posenum>
79

> <r_i_glide_eff_state_penalty>
0

> <s_user_duplicate_titles>
CHEMBL2023_lig84 ,CHEMBL2023_lig84 ,CHEMBL2023_lig84 ,CHEMBL2023_lig84 ,CHEMBL2023_lig84 

> <s_m_subgroup_title>
glide-dock_SP_comt_chembl_pv

> <s_m_subgroupid>
glide-dock_SP_comt_chembl_pv

> <b_m_subgroup_collapsed>
1

$$$$
CHEMBL2023_lig91 
                    3D
 Schrodinger Suite 2021-1.
 38 40  0  0  1  0            999 V2000
   -4.8435  -12.3302  -16.1682 C   0  0  0  0  0  0
   -4.2766  -13.2983  -17.0233 C   0  0  0  0  0  0
   -4.6450  -10.7065  -17.9629 C   0  0  0  0  0  0
   -4.9929  -11.0107  -16.6353 C   0  0  0  0  0  0
   -4.1402  -11.7294  -18.7922 C   0  0  0  0  0  0
   -3.9255  -12.9806  -18.2948 N   0  3  0  0  0  0
   -3.3244  -14.0425  -19.1460 C   0  0  0  0  0  0
   -2.9197  -13.5693  -20.5598 C   0  0  0  0  0  0
   -3.9237  -12.6520  -21.0780 N   0  0  1  0  0  0
   -3.8567  -11.4495  -20.2539 C   0  0  0  0  0  0
   -5.5101  -10.0520  -15.8230 O   0  0  0  0  0  0
   -5.2540  -12.6860  -14.9135 O   0  5  0  0  0  0
   -3.6465  -12.3256  -22.4760 C   0  0  0  0  0  0
   -4.7639  -11.5243  -23.1363 C   0  0  0  0  0  0
   -4.5701  -10.2093  -23.6431 C   0  0  0  0  0  0
   -5.6646   -9.5361  -24.2346 C   0  0  0  0  0  0
   -6.9286  -10.1474  -24.3224 C   0  0  0  0  0  0
   -7.1148  -11.4475  -23.8231 C   0  0  0  0  0  0
   -6.0358  -12.1308  -23.2347 C   0  0  0  0  0  0
   -3.2160   -9.5050  -23.5583 C   0  0  0  0  0  0
   -3.2533   -8.2856  -24.0951 F   0  0  0  0  0  0
   -2.8472   -9.3741  -22.2841 F   0  0  0  0  0  0
   -2.2907  -10.2070  -24.2118 F   0  0  0  0  0  0
   -4.1299  -14.3257  -16.7221 H   0  0  0  0  0  0
   -4.8023   -9.7136  -18.3601 H   0  0  0  0  0  0
   -4.0540  -14.8470  -19.2091 H   0  0  0  0  0  0
   -2.4555  -14.4397  -18.6230 H   0  0  0  0  0  0
   -2.8258  -14.4367  -21.2147 H   0  0  0  0  0  0
   -1.9447  -13.0803  -20.5493 H   0  0  0  0  0  0
   -2.8746  -10.9807  -20.3335 H   0  0  0  0  0  0
   -4.5899  -10.7231  -20.6076 H   0  0  0  0  0  0
   -5.8120   -9.2682  -16.2674 H   0  0  0  0  0  0
   -3.5521  -13.2544  -23.0406 H   0  0  0  0  0  0
   -2.6805  -11.8300  -22.5547 H   0  0  0  0  0  0
   -5.5475   -8.5354  -24.6235 H   0  0  0  0  0  0
   -7.7557   -9.6168  -24.7715 H   0  0  0  0  0  0
   -8.0854  -11.9163  -23.8869 H   0  0  0  0  0  0
   -6.1866  -13.1277  -22.8473 H   0  0  0  0  0  0
  1  2  2  0  0  0
  1 12  1  0  0  0
  1  4  1  0  0  0
  2  6  1  0  0  0
  2 24  1  0  0  0
  3 25  1  0  0  0
  3  5  1  0  0  0
  3  4  2  0  0  0
  4 11  1  0  0  0
  5 10  1  0  0  0
  5  6  2  0  0  0
  6  7  1  0  0  0
  7  8  1  0  0  0
  7 26  1  0  0  0
  7 27  1  0  0  0
  8  9  1  0  0  0
  8 28  1  0  0  0
  8 29  1  0  0  0
  9 10  1  0  0  0
  9 13  1  0  0  0
 10 30  1  0  0  0
 10 31  1  0  0  0
 11 32  1  0  0  0
 13 14  1  0  0  0
 13 33  1  0  0  0
 13 34  1  0  0  0
 14 15  2  0  0  0
 14 19  1  0  0  0
 15 16  1  0  0  0
 15 20  1  0  0  0
 16 17  2  0  0  0
 16 35  1  0  0  0
 17 18  1  0  0  0
 17 36  1  0  0  0
 18 19  2  0  0  0
 18 37  1  0  0  0
 19 38  1  0  0  0
 20 21  1  0  0  0
 20 22  1  0  0  0
 20 23  1  0  0  0
M  CHG  2   6   1  12  -1
M  END
> <s_m_entry_id>
300

> <s_m_entry_name>
glide-dock_SP_comt_chembl_pv.299

> <s_m_Source_Path>
/home/csk/Desktop/cluster/DUD-E-result/comt/glide-dock_SP_comt_chembl

> <s_m_Source_File>
glide-dock_SP_comt_chembl_pv.maegz

> <i_m_Source_File_Index>
299

> <chembl_id>
CHEMBL4556206

> <chembl_pref_name>
None

> <i_lp_mmshare_version>
53161

> <i_f3d_flags>
0

> <r_lp_tautomer_probability>
0.995892618013405

> <s_lp_Force_Field>
OPLS_2005

> <r_lp_Energy>
18.502453

> <b_lp_Chiralities_Consistent>
1

> <s_lp_Variant>
CHEMBL2023_lig91 -1

> <s_i_glide_gridfile>
glide-grid_3bwm

> <i_i_glide_lignum>
113

> <i_i_glide_rotatable_bonds>
4

> <r_i_docking_score>
-7.34800641032917

> <r_i_glide_ligand_efficiency>
-0.319478539579529

> <r_i_glide_ligand_efficiency_sa>
-0.908554468531836

> <r_i_glide_ligand_efficiency_ln>
-1.776814578056

> <r_i_glide_gscore>
-7.34800641032917

> <r_i_glide_lipo>
-0.74553038908015

> <r_i_glide_hbond>
-0.113429610440797

> <r_i_glide_metal>
-2.3

> <r_i_glide_rewards>
-1.49797016590909

> <r_i_glide_evdw>
-20.9628849029541

> <r_i_glide_ecoul>
-13.1926221847534

> <r_i_glide_erotb>
0.356107821550745

> <r_i_glide_esite>
-0.0201464935891624

> <r_i_glide_emodel>
-68.528588969701

> <r_i_glide_energy>
-34.1555070877075

> <r_i_glide_einternal>
0.762238740921021

> <i_i_glide_confnum>
2

> <i_i_glide_posenum>
12

> <r_i_glide_eff_state_penalty>
0

> <s_user_duplicate_titles>
CHEMBL2023_lig91 ,CHEMBL2023_lig91 ,CHEMBL2023_lig91 ,CHEMBL2023_lig91 

> <s_m_subgroup_title>
glide-dock_SP_comt_chembl_pv

> <s_m_subgroupid>
glide-dock_SP_comt_chembl_pv

> <b_m_subgroup_collapsed>
1

$$$$
CHEMBL2023_lig50
                    3D
 Schrodinger Suite 2021-1.
 25 26  0  0  1  0            999 V2000
   -5.2930  -10.0048  -15.8230 O   0  0  0  0  0  0
   -4.8540  -10.9530  -16.6576 C   0  0  0  0  0  0
   -4.4205  -10.6549  -17.8972 C   0  0  0  0  0  0
   -3.9333  -11.6327  -18.7593 N   0  0  0  0  0  0
   -3.9085  -12.8850  -18.4086 C   0  0  0  0  0  0
   -4.4540  -13.2338  -17.1529 N   0  0  0  0  0  0
   -4.8820  -12.3478  -16.2230 C   0  0  0  0  0  0
   -5.2540  -12.6860  -15.0913 O   0  0  0  0  0  0
   -3.2540  -13.8880  -19.3143 C   0  0  0  0  0  0
   -2.8540  -15.1501  -18.8221 C   0  0  0  0  0  0
   -2.0560  -16.0091  -19.6034 C   0  0  0  0  0  0
   -1.6847  -15.6428  -20.9143 C   0  0  0  0  0  0
   -2.1310  -14.4093  -21.4326 C   0  0  0  0  0  0
   -2.9042  -13.5375  -20.6404 C   0  0  0  0  0  0
   -0.8041  -16.5528  -21.7574 C   0  0  0  0  0  0
   -1.1953  -16.5287  -23.0317 F   0  0  0  0  0  0
   -0.8540  -17.8131  -21.3247 F   0  0  0  0  0  0
    0.4556  -16.1248  -21.6854 F   0  0  0  0  0  0
   -5.3329   -9.1847  -16.3009 H   0  0  0  0  0  0
   -4.4011   -9.6423  -18.2748 H   0  0  0  0  0  0
   -4.5479  -14.2106  -16.9074 H   0  0  0  0  0  0
   -3.1078  -15.4555  -17.8230 H   0  0  0  0  0  0
   -1.7268  -16.9508  -19.1883 H   0  0  0  0  0  0
   -1.8537  -14.1148  -22.4344 H   0  0  0  0  0  0
   -3.1904  -12.5808  -21.0538 H   0  0  0  0  0  0
  1  2  1  0  0  0
  1 19  1  0  0  0
  2  3  2  0  0  0
  2  7  1  0  0  0
  3  4  1  0  0  0
  3 20  1  0  0  0
  4  5  2  0  0  0
  5  6  1  0  0  0
  5  9  1  0  0  0
  6  7  1  0  0  0
  6 21  1  0  0  0
  7  8  2  0  0  0
  9 10  2  0  0  0
  9 14  1  0  0  0
 10 11  1  0  0  0
 10 22  1  0  0  0
 11 12  2  0  0  0
 11 23  1  0  0  0
 12 13  1  0  0  0
 12 15  1  0  0  0
 13 14  2  0  0  0
 13 24  1  0  0  0
 14 25  1  0  0  0
 15 16  1  0  0  0
 15 17  1  0  0  0
 15 18  1  0  0  0
M  END
> <s_m_entry_id>
305

> <s_m_entry_name>
glide-dock_SP_comt_chembl_pv.304

> <s_m_Source_Path>
/home/csk/Desktop/cluster/DUD-E-result/comt/glide-dock_SP_comt_chembl

> <s_m_Source_File>
glide-dock_SP_comt_chembl_pv.maegz

> <i_m_Source_File_Index>
304

> <chembl_id>
CHEMBL3920565

> <chembl_pref_name>
None

> <i_lp_mmshare_version>
53161

> <i_f3d_flags>
0

> <r_lp_tautomer_probability>
0.514243068145529

> <s_lp_Force_Field>
OPLS_2005

> <r_lp_Energy>
14.433258

> <b_lp_Chiralities_Consistent>
1

> <s_lp_Variant>
CHEMBL2023_lig50-1

> <s_i_glide_gridfile>
glide-grid_3bwm

> <i_i_glide_lignum>
64

> <i_i_glide_rotatable_bonds>
3

> <r_i_docking_score>
-7.33660544154852

> <r_i_glide_ligand_efficiency>
-0.40758919119714

> <r_i_glide_ligand_efficiency_sa>
-1.06818586417332

> <r_i_glide_ligand_efficiency_ln>
-1.88583659817539

> <r_i_glide_gscore>
-7.33660544154852

> <r_i_glide_lipo>
-0.536088091000132

> <r_i_glide_hbond>
-0.177620588464022

> <r_i_glide_metal>
-2.3

> <r_i_glide_rewards>
-1.66240439318182

> <r_i_glide_evdw>
-22.5005664825439

> <r_i_glide_ecoul>
-11.7614078521729

> <r_i_glide_erotb>
0.268503113058144

> <r_i_glide_esite>
-0.0397559800075719

> <r_i_glide_emodel>
-55.2851535056055

> <r_i_glide_energy>
-34.2619743347168

> <r_i_glide_einternal>
0.358906537294388

> <i_i_glide_confnum>
2

> <i_i_glide_posenum>
174

> <r_i_glide_eff_state_penalty>
0

> <s_user_duplicate_titles>
CHEMBL2023_lig50,CHEMBL2023_lig50,CHEMBL2023_lig50

> <s_m_subgroup_title>
glide-dock_SP_comt_chembl_pv

> <s_m_subgroupid>
glide-dock_SP_comt_chembl_pv

> <b_m_subgroup_collapsed>
1

$$$$
CHEMBL2023_lig93 
                    3D
 Schrodinger Suite 2021-1.
 38 40  0  0  1  0            999 V2000
   -4.8580  -12.3152  -16.1533 C   0  0  0  0  0  0
   -4.2732  -13.2675  -17.0123 C   0  0  0  0  0  0
   -4.7801  -10.7073  -17.9732 C   0  0  0  0  0  0
   -5.0752  -11.0082  -16.6314 C   0  0  0  0  0  0
   -4.2610  -11.7200  -18.8065 C   0  0  0  0  0  0
   -3.9748  -12.9526  -18.2965 N   0  3  0  0  0  0
   -3.3508  -14.0003  -19.1446 C   0  0  0  0  0  0
   -2.9682  -13.5123  -20.5571 C   0  0  0  0  0  0
   -4.0407  -12.6791  -21.0792 N   0  0  1  0  0  0
   -4.0488  -11.4541  -20.2856 C   0  0  0  0  0  0
   -5.6207  -10.0629  -15.8230 O   0  0  0  0  0  0
   -5.2540  -12.6860  -14.8973 O   0  5  0  0  0  0
   -3.8267  -12.3741  -22.4925 C   0  0  0  0  0  0
   -5.0223  -11.6831  -23.1380 C   0  0  0  0  0  0
   -4.9588  -10.3528  -23.6287 C   0  0  0  0  0  0
   -6.1021   -9.7757  -24.2229 C   0  0  0  0  0  0
   -7.3043  -10.5009  -24.3170 C   0  0  0  0  0  0
   -7.3706  -11.8157  -23.8231 C   0  0  0  0  0  0
   -6.2328  -12.4031  -23.2397 C   0  0  0  0  0  0
   -3.6904   -9.5236  -23.5270 C   0  0  0  0  0  0
   -4.0809  -14.2860  -16.7064 H   0  0  0  0  0  0
   -4.9976   -9.7293  -18.3793 H   0  0  0  0  0  0
   -4.0540  -14.8281  -19.2012 H   0  0  0  0  0  0
   -2.4675  -14.3673  -18.6230 H   0  0  0  0  0  0
   -2.8058  -14.3753  -21.2045 H   0  0  0  0  0  0
   -2.0344  -12.9497  -20.5385 H   0  0  0  0  0  0
   -3.1157  -10.9034  -20.4156 H   0  0  0  0  0  0
   -4.8539  -10.8036  -20.6310 H   0  0  0  0  0  0
   -5.9526   -9.2934  -16.2704 H   0  0  0  0  0  0
   -3.6753  -13.3091  -23.0340 H   0  0  0  0  0  0
   -2.9086  -11.8015  -22.6223 H   0  0  0  0  0  0
   -6.0664   -8.7650  -24.6031 H   0  0  0  0  0  0
   -8.1758  -10.0462  -24.7652 H   0  0  0  0  0  0
   -8.2935  -12.3713  -23.8922 H   0  0  0  0  0  0
   -6.2894  -13.4132  -22.8614 H   0  0  0  0  0  0
   -3.8468   -8.5111  -23.9014 H   0  0  0  0  0  0
   -3.3664   -9.4430  -22.4897 H   0  0  0  0  0  0
   -2.8896   -9.9760  -24.1123 H   0  0  0  0  0  0
  1  2  2  0  0  0
  1 12  1  0  0  0
  1  4  1  0  0  0
  2  6  1  0  0  0
  2 21  1  0  0  0
  3 22  1  0  0  0
  3  5  1  0  0  0
  3  4  2  0  0  0
  4 11  1  0  0  0
  5 10  1  0  0  0
  5  6  2  0  0  0
  6  7  1  0  0  0
  7  8  1  0  0  0
  7 23  1  0  0  0
  7 24  1  0  0  0
  8  9  1  0  0  0
  8 25  1  0  0  0
  8 26  1  0  0  0
  9 10  1  0  0  0
  9 13  1  0  0  0
 10 27  1  0  0  0
 10 28  1  0  0  0
 11 29  1  0  0  0
 13 14  1  0  0  0
 13 30  1  0  0  0
 13 31  1  0  0  0
 14 15  2  0  0  0
 14 19  1  0  0  0
 15 16  1  0  0  0
 15 20  1  0  0  0
 16 17  2  0  0  0
 16 32  1  0  0  0
 17 18  1  0  0  0
 17 33  1  0  0  0
 18 19  2  0  0  0
 18 34  1  0  0  0
 19 35  1  0  0  0
 20 36  1  0  0  0
 20 37  1  0  0  0
 20 38  1  0  0  0
M  CHG  2   6   1  12  -1
M  END
> <s_m_entry_id>
308

> <s_m_entry_name>
glide-dock_SP_comt_chembl_pv.307

> <s_m_Source_Path>
/home/csk/Desktop/cluster/DUD-E-result/comt/glide-dock_SP_comt_chembl

> <s_m_Source_File>
glide-dock_SP_comt_chembl_pv.maegz

> <i_m_Source_File_Index>
307

> <chembl_id>
CHEMBL4476127

> <chembl_pref_name>
None

> <i_lp_mmshare_version>
53161

> <i_f3d_flags>
0

> <r_lp_tautomer_probability>
0.995892618013405

> <s_lp_Force_Field>
OPLS_2005

> <r_lp_Energy>
15.951979

> <b_lp_Chiralities_Consistent>
1

> <s_lp_Variant>
CHEMBL2023_lig93 -1

> <s_i_glide_gridfile>
glide-grid_3bwm

> <i_i_glide_lignum>
115

> <i_i_glide_rotatable_bonds>
3

> <r_i_docking_score>
-7.33327419604243

> <r_i_glide_ligand_efficiency>
-0.366663709802121

> <r_i_glide_ligand_efficiency_sa>
-0.995278432259058

> <r_i_glide_ligand_efficiency_ln>
-1.83527666369896

> <r_i_glide_gscore>
-7.33327419604243

> <r_i_glide_lipo>
-0.718393772873032

> <r_i_glide_hbond>
-0.115524270816788

> <r_i_glide_metal>
-2.3

> <r_i_glide_rewards>
-1.86595690909091

> <r_i_glide_evdw>
-18.7213191986084

> <r_i_glide_ecoul>
-12.5786666870117

> <r_i_glide_erotb>
0.489466719720477

> <r_i_glide_esite>
0

> <r_i_glide_emodel>
-63.9488849158556

> <r_i_glide_energy>
-31.2999858856201

> <r_i_glide_einternal>
3.13207674026489

> <i_i_glide_confnum>
3

> <i_i_glide_posenum>
359

> <r_i_glide_eff_state_penalty>
0

> <s_user_duplicate_titles>
CHEMBL2023_lig93 ,CHEMBL2023_lig93 ,CHEMBL2023_lig93 ,CHEMBL2023_lig93 ,CHEMBL2023_lig93 

> <s_m_subgroup_title>
glide-dock_SP_comt_chembl_pv

> <s_m_subgroupid>
glide-dock_SP_comt_chembl_pv

> <b_m_subgroup_collapsed>
1

$$$$
CHEMBL2023_lig26
                    3D
 Schrodinger Suite 2021-1.
 27 28  0  0  1  0            999 V2000
   -4.7696  -11.2380  -16.6636 C   0  0  0  0  0  0
   -4.3169  -10.9126  -17.9577 C   0  0  0  0  0  0
   -4.2486  -13.5524  -17.1236 C   0  0  0  0  0  0
   -4.7582  -12.5734  -16.2516 C   0  0  0  0  0  0
   -3.7910  -13.2015  -18.4200 C   0  0  0  0  0  0
   -3.8674  -11.8808  -18.8079 N   0  3  0  0  0  0
   -5.2540  -12.9031  -15.0230 O   0  0  0  0  0  0
   -5.2537  -10.2860  -15.8230 O   0  5  0  0  0  0
   -3.2540  -14.3018  -19.3476 C   0  0  0  0  0  0
   -3.6072  -15.6199  -18.9843 O   0  0  0  0  0  0
   -3.5162  -11.4356  -20.1552 C   0  0  0  0  0  0
   -4.3612  -10.5338  -20.8381 C   0  0  0  0  0  0
   -4.0540  -10.0866  -22.1382 C   0  0  0  0  0  0
   -2.8782  -10.5193  -22.7738 C   0  0  0  0  0  0
   -2.0138  -11.4006  -22.1028 C   0  0  0  0  0  0
   -2.3350  -11.8491  -20.8076 C   0  0  0  0  0  0
   -4.3236   -9.8945  -18.3194 H   0  0  0  0  0  0
   -4.2454  -14.5801  -16.7912 H   0  0  0  0  0  0
   -5.7140  -13.7476  -15.0962 H   0  0  0  0  0  0
   -2.1667  -14.2860  -19.3521 H   0  0  0  0  0  0
   -3.6111  -14.1513  -20.3666 H   0  0  0  0  0  0
   -3.1752  -15.8456  -18.1734 H   0  0  0  0  0  0
   -5.2540  -10.1686  -20.3657 H   0  0  0  0  0  0
   -4.7201   -9.4024  -22.6440 H   0  0  0  0  0  0
   -2.6390  -10.1734  -23.7693 H   0  0  0  0  0  0
   -1.1043  -11.7334  -22.5820 H   0  0  0  0  0  0
   -1.6540  -12.5139  -20.3224 H   0  0  0  0  0  0
  1  2  2  0  0  0
  1  8  1  0  0  0
  1  4  1  0  0  0
  2  6  1  0  0  0
  2 17  1  0  0  0
  3 18  1  0  0  0
  3  5  1  0  0  0
  3  4  2  0  0  0
  4  7  1  0  0  0
  5  9  1  0  0  0
  5  6  2  0  0  0
  6 11  1  0  0  0
  7 19  1  0  0  0
  9 10  1  0  0  0
  9 20  1  0  0  0
  9 21  1  0  0  0
 10 22  1  0  0  0
 11 12  2  0  0  0
 11 16  1  0  0  0
 12 13  1  0  0  0
 12 23  1  0  0  0
 13 14  2  0  0  0
 13 24  1  0  0  0
 14 15  1  0  0  0
 14 25  1  0  0  0
 15 16  2  0  0  0
 15 26  1  0  0  0
 16 27  1  0  0  0
M  CHG  2   6   1   8  -1
M  END
> <s_m_entry_id>
317

> <s_m_entry_name>
glide-dock_SP_comt_chembl_pv.316

> <s_m_Source_Path>
/home/csk/Desktop/cluster/DUD-E-result/comt/glide-dock_SP_comt_chembl

> <s_m_Source_File>
glide-dock_SP_comt_chembl_pv.maegz

> <i_m_Source_File_Index>
316

> <chembl_id>
CHEMBL3425725

> <chembl_pref_name>
None

> <i_lp_mmshare_version>
53161

> <i_f3d_flags>
0

> <r_lp_tautomer_probability>
0.995892618013405

> <s_lp_Force_Field>
OPLS_2005

> <r_lp_Energy>
19.058774

> <b_lp_Chiralities_Consistent>
1

> <s_lp_Variant>
CHEMBL2023_lig26-1

> <s_i_glide_gridfile>
glide-grid_3bwm

> <i_i_glide_lignum>
35

> <i_i_glide_rotatable_bonds>
4

> <r_i_docking_score>
-7.31300896402704

> <r_i_glide_ligand_efficiency>
-0.45706306025169

> <r_i_glide_ligand_efficiency_sa>
-1.15172674041652

> <r_i_glide_ligand_efficiency_ln>
-1.93845910658539

> <r_i_glide_gscore>
-7.31300896402704

> <r_i_glide_lipo>
-0.549814892135693

> <r_i_glide_hbond>
-0.243174564896837

> <r_i_glide_metal>
-1.89336933150425

> <r_i_glide_rewards>
-1.92804109090909

> <r_i_glide_evdw>
-12.7020921707153

> <r_i_glide_ecoul>
-18.4973945617676

> <r_i_glide_erotb>
0.711104708219731

> <r_i_glide_esite>
0

> <r_i_glide_emodel>
-63.7369846671384

> <r_i_glide_energy>
-31.1994867324829

> <r_i_glide_einternal>
2.86768245697021

> <i_i_glide_confnum>
10

> <i_i_glide_posenum>
157

> <r_i_glide_eff_state_penalty>
0

> <s_user_duplicate_titles>
CHEMBL2023_lig26,CHEMBL2023_lig26,CHEMBL2023_lig26,CHEMBL2023_lig26,CHEMBL2023_lig26

> <s_m_subgroup_title>
glide-dock_SP_comt_chembl_pv

> <s_m_subgroupid>
glide-dock_SP_comt_chembl_pv

> <b_m_subgroup_collapsed>
1

$$$$
CHEMBL2023_lig94 
                    3D
 Schrodinger Suite 2021-1.
 35 37  0  0  1  0            999 V2000
   -4.8482  -12.3585  -16.1817 C   0  0  0  0  0  0
   -4.3951  -13.3733  -17.0441 C   0  0  0  0  0  0
   -4.4907  -10.7548  -17.9762 C   0  0  0  0  0  0
   -4.8590  -11.0288  -16.6464 C   0  0  0  0  0  0
   -4.0886  -11.8175  -18.8108 C   0  0  0  0  0  0
   -4.0220  -13.0860  -18.3153 N   0  3  0  0  0  0
   -3.4995  -14.1836  -19.1552 C   0  0  0  0  0  0
   -3.6360  -13.8904  -20.6582 C   0  0  0  0  0  0
   -3.0277  -12.5974  -20.9461 N   0  0  2  0  0  0
   -3.8313  -11.5687  -20.2897 C   0  0  0  0  0  0
   -5.2541  -10.0236  -15.8230 O   0  0  0  0  0  0
   -5.2540  -12.6860  -14.9180 O   0  5  0  0  0  0
   -3.0337  -12.3990  -22.3973 C   0  0  0  0  0  0
   -2.3682  -11.1141  -22.8724 C   0  0  0  0  0  0
   -3.1257  -10.0095  -23.3370 C   0  0  0  0  0  0
   -2.4690   -8.8533  -23.8042 C   0  0  0  0  0  0
   -1.0629   -8.7936  -23.8230 C   0  0  0  0  0  0
   -0.3080   -9.8860  -23.3560 C   0  0  0  0  0  0
   -0.9591  -11.0386  -22.8762 C   0  0  0  0  0  0
   -4.8540  -10.0407  -23.3522 Cl  0  0  0  0  0  0
   -4.3436  -14.4096  -16.7406 H   0  0  0  0  0  0
   -4.5504   -9.7495  -18.3689 H   0  0  0  0  0  0
   -4.0290  -15.0997  -18.8896 H   0  0  0  0  0  0
   -2.4540  -14.3138  -18.8792 H   0  0  0  0  0  0
   -4.6845  -13.8996  -20.9635 H   0  0  0  0  0  0
   -3.1303  -14.6752  -21.2229 H   0  0  0  0  0  0
   -3.3394  -10.6016  -20.3998 H   0  0  0  0  0  0
   -4.8037  -11.4858  -20.7790 H   0  0  0  0  0  0
   -5.4980   -9.2175  -16.2636 H   0  0  0  0  0  0
   -4.0503  -12.4697  -22.7850 H   0  0  0  0  0  0
   -2.4888  -13.2236  -22.8598 H   0  0  0  0  0  0
   -3.0474   -8.0121  -24.1584 H   0  0  0  0  0  0
   -0.5636   -7.9099  -24.1934 H   0  0  0  0  0  0
    0.7714   -9.8392  -23.3646 H   0  0  0  0  0  0
   -0.3727  -11.8744  -22.5228 H   0  0  0  0  0  0
  1  2  2  0  0  0
  1 12  1  0  0  0
  1  4  1  0  0  0
  2  6  1  0  0  0
  2 21  1  0  0  0
  3 22  1  0  0  0
  3  5  1  0  0  0
  3  4  2  0  0  0
  4 11  1  0  0  0
  5 10  1  0  0  0
  5  6  2  0  0  0
  6  7  1  0  0  0
  7  8  1  0  0  0
  7 23  1  0  0  0
  7 24  1  0  0  0
  8  9  1  0  0  0
  8 25  1  0  0  0
  8 26  1  0  0  0
  9 10  1  0  0  0
  9 13  1  0  0  0
 10 27  1  0  0  0
 10 28  1  0  0  0
 11 29  1  0  0  0
 13 14  1  0  0  0
 13 30  1  0  0  0
 13 31  1  0  0  0
 14 15  2  0  0  0
 14 19  1  0  0  0
 15 16  1  0  0  0
 15 20  1  0  0  0
 16 17  2  0  0  0
 16 32  1  0  0  0
 17 18  1  0  0  0
 17 33  1  0  0  0
 18 19  2  0  0  0
 18 34  1  0  0  0
 19 35  1  0  0  0
M  CHG  2   6   1  12  -1
M  END
> <s_m_entry_id>
318

> <s_m_entry_name>
glide-dock_SP_comt_chembl_pv.317

> <s_m_Source_Path>
/home/csk/Desktop/cluster/DUD-E-result/comt/glide-dock_SP_comt_chembl

> <s_m_Source_File>
glide-dock_SP_comt_chembl_pv.maegz

> <i_m_Source_File_Index>
317

> <chembl_id>
CHEMBL4453736

> <chembl_pref_name>
None

> <i_lp_mmshare_version>
53161

> <i_f3d_flags>
0

> <r_lp_tautomer_probability>
0.995892618013405

> <s_lp_Force_Field>
OPLS_2005

> <r_lp_Energy>
16.842122

> <b_lp_Chiralities_Consistent>
1

> <s_lp_Variant>
CHEMBL2023_lig94 -1

> <s_i_glide_gridfile>
glide-grid_3bwm

> <i_i_glide_lignum>
116

> <i_i_glide_rotatable_bonds>
3

> <r_i_docking_score>
-7.31083921299134

> <r_i_glide_ligand_efficiency>
-0.365541960649567

> <r_i_glide_ligand_efficiency_sa>
-0.992233536601004

> <r_i_glide_ligand_efficiency_ln>
-1.82966192739654

> <r_i_glide_gscore>
-7.31083921299134

> <r_i_glide_lipo>
-0.534294445964817

> <r_i_glide_hbond>
-0.112839425880957

> <r_i_glide_metal>
-2.3

> <r_i_glide_rewards>
-1.72674204545454

> <r_i_glide_evdw>
-19.648624420166

> <r_i_glide_ecoul>
-13.9056282043457

> <r_i_glide_erotb>
0.431312155969137

> <r_i_glide_esite>
0

> <r_i_glide_emodel>
-67.1523015572002

> <r_i_glide_energy>
-33.5542526245117

> <r_i_glide_einternal>
2.4826967716217

> <i_i_glide_confnum>
4

> <i_i_glide_posenum>
160

> <r_i_glide_eff_state_penalty>
0

> <s_user_duplicate_titles>
CHEMBL2023_lig94 ,CHEMBL2023_lig94 ,CHEMBL2023_lig94 ,CHEMBL2023_lig94 ,CHEMBL2023_lig94 

> <s_m_subgroup_title>
glide-dock_SP_comt_chembl_pv

> <s_m_subgroupid>
glide-dock_SP_comt_chembl_pv

> <b_m_subgroup_collapsed>
1

$$$$
CHEMBL2023_lig11
                    3D
 Schrodinger Suite 2021-1.
 46 48  0  0  1  0            999 V2000
   -4.7599  -11.3067  -16.6816 C   0  0  0  0  0  0
   -4.4539  -11.0785  -18.0395 C   0  0  0  0  0  0
   -4.3995  -13.6779  -17.0737 C   0  0  0  0  0  0
   -4.8000  -12.6292  -16.2220 C   0  0  0  0  0  0
   -4.0545  -13.4230  -18.4233 C   0  0  0  0  0  0
   -4.1736  -12.1277  -18.8613 N   0  3  0  0  0  0
   -5.2529  -12.8885  -14.9602 O   0  0  0  0  0  0
   -5.0710  -10.2873  -15.8232 O   0  5  0  0  0  0
   -4.0751  -11.8336  -20.2644 C   0  0  0  0  0  0
   -2.9619  -11.1277  -20.7678 C   0  0  0  0  0  0
   -2.8282  -10.9152  -22.1586 C   0  0  0  0  0  0
   -3.8580  -11.3605  -23.0179 C   0  0  0  0  0  0
   -4.9846  -12.0352  -22.5121 C   0  0  0  0  0  0
   -5.0910  -12.2846  -21.1334 C   0  0  0  0  0  0
   -1.6260  -10.2748  -22.7153 C   0  0  0  0  0  0
   -1.7353   -9.2472  -23.6799 C   0  0  0  0  0  0
   -0.5848   -8.6426  -24.2231 C   0  0  0  0  0  0
    0.6929   -9.0656  -23.8118 C   0  0  0  0  0  0
    0.8167  -10.0888  -22.8532 C   0  0  0  0  0  0
   -0.3364  -10.6861  -22.3073 C   0  0  0  0  0  0
   -3.6611  -14.5840  -19.3765 C   0  0  2  0  0  0
   -3.6527  -15.8559  -18.7497 O   0  0  0  0  0  0
   -2.2554  -14.4902  -19.9160 C   0  0  0  0  0  0
   -1.9159  -15.4533  -21.0670 C   0  0  0  0  0  0
   -0.4748  -15.2774  -21.5584 C   0  0  0  0  0  0
   -4.4926  -10.0980  -18.4938 H   0  0  0  0  0  0
   -4.4238  -14.6860  -16.6881 H   0  0  0  0  0  0
   -5.6877  -13.7483  -14.9623 H   0  0  0  0  0  0
   -2.1854  -10.7944  -20.0946 H   0  0  0  0  0  0
   -3.7765  -11.2021  -24.0837 H   0  0  0  0  0  0
   -5.7600  -12.3713  -23.1851 H   0  0  0  0  0  0
   -5.9531  -12.8110  -20.7500 H   0  0  0  0  0  0
   -2.7097   -8.9122  -24.0061 H   0  0  0  0  0  0
   -0.6827   -7.8552  -24.9565 H   0  0  0  0  0  0
    1.5765   -8.6041  -24.2283 H   0  0  0  0  0  0
    1.7963  -10.4145  -22.5349 H   0  0  0  0  0  0
   -0.2237  -11.4752  -21.5780 H   0  0  0  0  0  0
   -4.3494  -14.6251  -20.2225 H   0  0  0  0  0  0
   -2.9840  -15.8715  -18.0823 H   0  0  0  0  0  0
   -1.6493  -14.6862  -19.0434 H   0  0  0  0  0  0
   -2.0534  -13.4814  -20.2543 H   0  0  0  0  0  0
   -2.6004  -15.2864  -21.8997 H   0  0  0  0  0  0
   -2.0541  -16.4884  -20.7527 H   0  0  0  0  0  0
   -0.2598  -15.9593  -22.3816 H   0  0  0  0  0  0
    0.2410  -15.4844  -20.7620 H   0  0  0  0  0  0
   -0.2984  -14.2619  -21.9147 H   0  0  0  0  0  0
  1  2  2  0  0  0
  1  8  1  0  0  0
  1  4  1  0  0  0
  2  6  1  0  0  0
  2 26  1  0  0  0
  3 27  1  0  0  0
  3  5  1  0  0  0
  3  4  2  0  0  0
  4  7  1  0  0  0
  5 21  1  0  0  0
  5  6  2  0  0  0
  6  9  1  0  0  0
  7 28  1  0  0  0
  9 10  2  0  0  0
  9 14  1  0  0  0
 10 11  1  0  0  0
 10 29  1  0  0  0
 11 12  2  0  0  0
 11 15  1  0  0  0
 12 13  1  0  0  0
 12 30  1  0  0  0
 13 14  2  0  0  0
 13 31  1  0  0  0
 14 32  1  0  0  0
 15 16  2  0  0  0
 15 20  1  0  0  0
 16 17  1  0  0  0
 16 33  1  0  0  0
 17 18  2  0  0  0
 17 34  1  0  0  0
 18 19  1  0  0  0
 18 35  1  0  0  0
 19 20  2  0  0  0
 19 36  1  0  0  0
 20 37  1  0  0  0
 21 22  1  0  0  0
 21 23  1  0  0  0
 21 38  1  0  0  0
 22 39  1  0  0  0
 23 24  1  0  0  0
 23 40  1  0  0  0
 23 41  1  0  0  0
 24 25  1  0  0  0
 24 42  1  0  0  0
 24 43  1  0  0  0
 25 44  1  0  0  0
 25 45  1  0  0  0
 25 46  1  0  0  0
M  CHG  2   6   1   8  -1
M  END
> <s_m_entry_id>
322

> <s_m_entry_name>
glide-dock_SP_comt_chembl_pv.321

> <s_m_Source_Path>
/home/csk/Desktop/cluster/DUD-E-result/comt/glide-dock_SP_comt_chembl

> <s_m_Source_File>
glide-dock_SP_comt_chembl_pv.maegz

> <i_m_Source_File_Index>
321

> <chembl_id>
CHEMBL3425740

> <chembl_pref_name>
None

> <i_lp_mmshare_version>
53161

> <i_f3d_flags>
0

> <r_lp_tautomer_probability>
0.995892618013405

> <s_lp_Force_Field>
OPLS_2005

> <r_lp_Energy>
25.782356

> <b_lp_Chiralities_Consistent>
1

> <s_lp_Variant>
CHEMBL2023_lig11-1

> <s_i_glide_gridfile>
glide-grid_3bwm

> <i_i_glide_lignum>
17

> <i_i_glide_rotatable_bonds>
7

> <r_i_docking_score>
-7.29616194667821

> <r_i_glide_ligand_efficiency>
-0.291846477867129

> <r_i_glide_ligand_efficiency_sa>
-0.853364277202808

> <r_i_glide_ligand_efficiency_ln>
-1.72940902969244

> <r_i_glide_gscore>
-7.29616194667821

> <r_i_glide_lipo>
-0.478301284027893

> <r_i_glide_hbond>
-0.15486186241272

> <r_i_glide_metal>
-2.14371445004946

> <r_i_glide_rewards>
-1.87229768181818

> <r_i_glide_evdw>
-15.1224203109741

> <r_i_glide_ecoul>
-17.0797271728516

> <r_i_glide_erotb>
0.671093423106483

> <r_i_glide_esite>
0

> <r_i_glide_emodel>
-60.6371962658456

> <r_i_glide_energy>
-32.2021474838257

> <r_i_glide_einternal>
7.02634572982788

> <i_i_glide_confnum>
58

> <i_i_glide_posenum>
395

> <r_i_glide_eff_state_penalty>
0

> <s_user_duplicate_titles>
CHEMBL2023_lig11,CHEMBL2023_lig11

> <s_m_subgroup_title>
glide-dock_SP_comt_chembl_pv

> <s_m_subgroupid>
glide-dock_SP_comt_chembl_pv

> <b_m_subgroup_collapsed>
1

$$$$
CHEMBL2023_lig86 
                    3D
 Schrodinger Suite 2021-1.
 35 37  0  0  1  0            999 V2000
   -3.9303  -14.8541  -22.9232 O   0  0  0  0  0  0
   -3.7589  -13.4698  -22.4583 S   0  0  0  0  0  0
   -4.6899  -12.4165  -22.8905 O   0  0  0  0  0  0
   -4.8523  -12.5111  -15.9169 C   0  0  0  0  0  0
   -4.3535  -13.6101  -16.6364 C   0  0  0  0  0  0
   -4.4540  -11.1368  -17.8801 C   0  0  0  0  0  0
   -4.8585  -11.2495  -16.5370 C   0  0  0  0  0  0
   -4.0293  -12.2935  -18.5702 C   0  0  0  0  0  0
   -3.9482  -13.4899  -17.9207 N   0  3  0  0  0  0
   -3.4262  -14.7157  -18.5821 C   0  0  0  0  0  0
   -2.9961  -14.5398  -20.0525 C   0  0  0  0  0  0
   -3.7656  -13.4936  -20.7258 N   0  0  1  0  0  0
   -3.6685  -12.2069  -20.0370 C   0  0  0  0  0  0
   -5.2540  -10.1607  -15.8230 O   0  0  0  0  0  0
   -5.2540  -12.6860  -14.6234 O   0  5  0  0  0  0
   -2.0848  -12.9422  -22.8150 C   0  0  0  0  0  0
   -1.8034  -11.5697  -22.9713 C   0  0  0  0  0  0
   -0.4779  -11.1538  -23.2046 C   0  0  0  0  0  0
    0.5565  -12.1077  -23.2845 C   0  0  0  0  0  0
    0.2685  -13.4795  -23.1362 C   0  0  0  0  0  0
   -1.0553  -13.9005  -22.9026 C   0  0  0  0  0  0
   -4.3066  -14.6017  -16.2089 H   0  0  0  0  0  0
   -4.4954  -10.1836  -18.3881 H   0  0  0  0  0  0
   -4.2022  -15.4735  -18.4988 H   0  0  0  0  0  0
   -2.5912  -15.0860  -17.9873 H   0  0  0  0  0  0
   -3.1022  -15.4860  -20.5801 H   0  0  0  0  0  0
   -1.9433  -14.2862  -20.1187 H   0  0  0  0  0  0
   -2.6557  -11.8138  -20.1336 H   0  0  0  0  0  0
   -4.3380  -11.4917  -20.5174 H   0  0  0  0  0  0
   -5.4997   -9.4098  -16.3516 H   0  0  0  0  0  0
   -2.5959  -10.8387  -22.9055 H   0  0  0  0  0  0
   -0.2527  -10.1037  -23.3224 H   0  0  0  0  0  0
    1.5726  -11.7868  -23.4634 H   0  0  0  0  0  0
    1.0637  -14.2079  -23.2011 H   0  0  0  0  0  0
   -1.2764  -14.9512  -22.7830 H   0  0  0  0  0  0
  1  2  2  0  0  0
  2  3  2  0  0  0
  2 12  1  0  0  0
  2 16  1  0  0  0
  4  5  2  0  0  0
  4 15  1  0  0  0
  4  7  1  0  0  0
  5  9  1  0  0  0
  5 22  1  0  0  0
  6 23  1  0  0  0
  6  8  1  0  0  0
  6  7  2  0  0  0
  7 14  1  0  0  0
  8 13  1  0  0  0
  8  9  2  0  0  0
  9 10  1  0  0  0
 10 11  1  0  0  0
 10 24  1  0  0  0
 10 25  1  0  0  0
 11 12  1  0  0  0
 11 26  1  0  0  0
 11 27  1  0  0  0
 12 13  1  0  0  0
 13 28  1  0  0  0
 13 29  1  0  0  0
 14 30  1  0  0  0
 16 17  2  0  0  0
 16 21  1  0  0  0
 17 18  1  0  0  0
 17 31  1  0  0  0
 18 19  2  0  0  0
 18 32  1  0  0  0
 19 20  1  0  0  0
 19 33  1  0  0  0
 20 21  2  0  0  0
 20 34  1  0  0  0
 21 35  1  0  0  0
M  CHG  2   9   1  15  -1
M  END
> <s_m_entry_id>
333

> <s_m_entry_name>
glide-dock_SP_comt_chembl_pv.332

> <s_m_Source_Path>
/home/csk/Desktop/cluster/DUD-E-result/comt/glide-dock_SP_comt_chembl

> <s_m_Source_File>
glide-dock_SP_comt_chembl_pv.maegz

> <i_m_Source_File_Index>
332

> <chembl_id>
CHEMBL4571097

> <chembl_pref_name>
None

> <i_lp_mmshare_version>
53161

> <i_f3d_flags>
0

> <r_lp_tautomer_probability>
0.995892618013405

> <s_lp_Force_Field>
OPLS_2005

> <r_lp_Energy>
8.189646

> <b_lp_Chiralities_Consistent>
1

> <s_lp_Variant>
CHEMBL2023_lig86 -1

> <s_i_glide_gridfile>
glide-grid_3bwm

> <i_i_glide_lignum>
108

> <i_i_glide_rotatable_bonds>
3

> <r_i_docking_score>
-7.27850398670635

> <r_i_glide_ligand_efficiency>
-0.346595427938398

> <r_i_glide_ligand_efficiency_sa>
-0.956230504591984

> <r_i_glide_ligand_efficiency_ln>
-1.799595403111

> <r_i_glide_gscore>
-7.27850398670635

> <r_i_glide_lipo>
-0.434175521203523

> <r_i_glide_hbond>
-0.123850257872417

> <r_i_glide_metal>
-2.3

> <r_i_glide_rewards>
-2.0270428783624

> <r_i_glide_evdw>
-13.2080554962158

> <r_i_glide_ecoul>
-14.1716156005859

> <r_i_glide_erotb>
0.393647835862739

> <r_i_glide_esite>
-0.000938050232071572

> <r_i_glide_emodel>
-61.458082524168

> <r_i_glide_energy>
-27.3796710968018

> <r_i_glide_einternal>
0.44452977180481

> <i_i_glide_confnum>
4

> <i_i_glide_posenum>
387

> <r_i_glide_eff_state_penalty>
0

> <s_user_duplicate_titles>
CHEMBL2023_lig86 ,CHEMBL2023_lig86 ,CHEMBL2023_lig86 

> <s_m_subgroup_title>
glide-dock_SP_comt_chembl_pv

> <s_m_subgroupid>
glide-dock_SP_comt_chembl_pv

> <b_m_subgroup_collapsed>
1

$$$$
CHEMBL2023_lig98 
                    3D
 Schrodinger Suite 2021-1.
 41 43  0  0  1  0            999 V2000
   -4.8540  -12.3070  -16.1705 C   0  0  0  0  0  0
   -4.2664  -13.2533  -17.0344 C   0  0  0  0  0  0
   -4.7424  -10.6772  -17.9687 C   0  0  0  0  0  0
   -5.0607  -10.9941  -16.6362 C   0  0  0  0  0  0
   -4.2105  -11.6787  -18.8068 C   0  0  0  0  0  0
   -3.9465  -12.9220  -18.3108 N   0  3  0  0  0  0
   -3.3222  -13.9618  -19.1678 C   0  0  0  0  0  0
   -2.8600  -13.4387  -20.5438 C   0  0  0  0  0  0
   -3.8943  -12.5796  -21.0983 N   0  0  1  0  0  0
   -3.9411  -11.3789  -20.2709 C   0  0  0  0  0  0
   -5.6121  -10.0561  -15.8230 O   0  0  0  0  0  0
   -5.2540  -12.6860  -14.9186 O   0  5  0  0  0  0
   -3.5944  -12.2437  -22.4909 C   0  0  0  0  0  0
   -4.7309  -11.5095  -23.2061 C   0  0  0  0  0  0
   -5.9277  -12.2040  -23.5316 C   0  0  0  0  0  0
   -6.9817  -11.5298  -24.1824 C   0  0  0  0  0  0
   -6.8541  -10.1745  -24.5266 C   0  0  0  0  0  0
   -5.6685   -9.4860  -24.2230 C   0  0  0  0  0  0
   -4.6076  -10.1381  -23.5605 C   0  0  0  0  0  0
   -6.1058  -13.6767  -23.2022 C   0  0  0  0  0  0
   -3.3543   -9.3355  -23.2521 C   0  0  0  0  0  0
   -4.0848  -14.2775  -16.7397 H   0  0  0  0  0  0
   -4.9432   -9.6909  -18.3630 H   0  0  0  0  0  0
   -4.0540  -14.7576  -19.2869 H   0  0  0  0  0  0
   -2.4772  -14.3814  -18.6230 H   0  0  0  0  0  0
   -2.6735  -14.2860  -21.2052 H   0  0  0  0  0  0
   -1.9246  -12.8844  -20.4665 H   0  0  0  0  0  0
   -3.0032  -10.8265  -20.3446 H   0  0  0  0  0  0
   -4.7316  -10.7206  -20.6347 H   0  0  0  0  0  0
   -5.9378   -9.2809  -16.2651 H   0  0  0  0  0  0
   -3.4066  -13.1639  -23.0450 H   0  0  0  0  0  0
   -2.6608  -11.6849  -22.5446 H   0  0  0  0  0  0
   -7.8953  -12.0505  -24.4277 H   0  0  0  0  0  0
   -7.6634   -9.6640  -25.0279 H   0  0  0  0  0  0
   -5.5803   -8.4457  -24.5007 H   0  0  0  0  0  0
   -7.0711  -14.0484  -23.5458 H   0  0  0  0  0  0
   -5.3316  -14.2759  -23.6812 H   0  0  0  0  0  0
   -6.0539  -13.8360  -22.1265 H   0  0  0  0  0  0
   -3.4645   -8.2947  -23.5591 H   0  0  0  0  0  0
   -3.1451   -9.3378  -22.1836 H   0  0  0  0  0  0
   -2.4953   -9.7472  -23.7822 H   0  0  0  0  0  0
  1  2  2  0  0  0
  1 12  1  0  0  0
  1  4  1  0  0  0
  2  6  1  0  0  0
  2 22  1  0  0  0
  3 23  1  0  0  0
  3  5  1  0  0  0
  3  4  2  0  0  0
  4 11  1  0  0  0
  5 10  1  0  0  0
  5  6  2  0  0  0
  6  7  1  0  0  0
  7  8  1  0  0  0
  7 24  1  0  0  0
  7 25  1  0  0  0
  8  9  1  0  0  0
  8 26  1  0  0  0
  8 27  1  0  0  0
  9 10  1  0  0  0
  9 13  1  0  0  0
 10 28  1  0  0  0
 10 29  1  0  0  0
 11 30  1  0  0  0
 13 14  1  0  0  0
 13 31  1  0  0  0
 13 32  1  0  0  0
 14 15  2  0  0  0
 14 19  1  0  0  0
 15 16  1  0  0  0
 15 20  1  0  0  0
 16 17  2  0  0  0
 16 33  1  0  0  0
 17 18  1  0  0  0
 17 34  1  0  0  0
 18 19  2  0  0  0
 18 35  1  0  0  0
 19 21  1  0  0  0
 20 36  1  0  0  0
 20 37  1  0  0  0
 20 38  1  0  0  0
 21 39  1  0  0  0
 21 40  1  0  0  0
 21 41  1  0  0  0
M  CHG  2   6   1  12  -1
M  END
> <s_m_entry_id>
347

> <s_m_entry_name>
glide-dock_SP_comt_chembl_pv.346

> <s_m_Source_Path>
/home/csk/Desktop/cluster/DUD-E-result/comt/glide-dock_SP_comt_chembl

> <s_m_Source_File>
glide-dock_SP_comt_chembl_pv.maegz

> <i_m_Source_File_Index>
346

> <chembl_id>
CHEMBL4462175

> <chembl_pref_name>
None

> <i_lp_mmshare_version>
53161

> <i_f3d_flags>
0

> <r_lp_tautomer_probability>
0.995892618013405

> <s_lp_Force_Field>
OPLS_2005

> <r_lp_Energy>
16.903848

> <b_lp_Chiralities_Consistent>
1

> <s_lp_Variant>
CHEMBL2023_lig98 -1

> <s_i_glide_gridfile>
glide-grid_3bwm

> <i_i_glide_lignum>
120

> <i_i_glide_rotatable_bonds>
3

> <r_i_docking_score>
-7.25932134265966

> <r_i_glide_ligand_efficiency>
-0.345681968698079

> <r_i_glide_ligand_efficiency_sa>
-0.953710339812288

> <r_i_glide_ligand_efficiency_ln>
-1.79485253313263

> <r_i_glide_gscore>
-7.25932134265966

> <r_i_glide_lipo>
-0.735931963268745

> <r_i_glide_hbond>
-0.112763005965005

> <r_i_glide_metal>
-2.3

> <r_i_glide_rewards>
-1.77032113636364

> <r_i_glide_evdw>
-19.048921585083

> <r_i_glide_ecoul>
-12.2413330078125

> <r_i_glide_erotb>
0.448340793363749

> <r_i_glide_esite>
0

> <r_i_glide_emodel>
-61.6720908947285

> <r_i_glide_energy>
-31.2902545928955

> <r_i_glide_einternal>
4.35071849822998

> <i_i_glide_confnum>
3

> <i_i_glide_posenum>
259

> <r_i_glide_eff_state_penalty>
0

> <s_user_duplicate_titles>
CHEMBL2023_lig98 ,CHEMBL2023_lig98 ,CHEMBL2023_lig98 ,CHEMBL2023_lig98 

> <s_m_subgroup_title>
glide-dock_SP_comt_chembl_pv

> <s_m_subgroupid>
glide-dock_SP_comt_chembl_pv

> <b_m_subgroup_collapsed>
1

$$$$
CHEMBL2023_lig85 
                    3D
 Schrodinger Suite 2021-1.
 34 36  0  0  1  0            999 V2000
   -4.8540  -12.3113  -16.1870 C   0  0  0  0  0  0
   -4.2756  -13.2621  -17.0512 C   0  0  0  0  0  0
   -4.7318  -10.6847  -17.9860 C   0  0  0  0  0  0
   -5.0395  -10.9950  -16.6486 C   0  0  0  0  0  0
   -4.2230  -11.6923  -18.8341 C   0  0  0  0  0  0
   -3.9572  -12.9384  -18.3301 N   0  3  0  0  0  0
   -3.3299  -13.9930  -19.1734 C   0  0  0  0  0  0
   -2.8546  -13.4708  -20.5378 C   0  0  0  0  0  0
   -3.8774  -12.6103  -21.1159 N   0  0  0  0  0  0
   -4.0148  -11.3896  -20.3175 C   0  0  0  0  0  0
   -5.5608  -10.0493  -15.8230 O   0  0  0  0  0  0
   -5.2540  -12.6860  -14.9339 O   0  5  0  0  0  0
   -4.7159  -13.0353  -22.0927 C   0  0  0  0  0  0
   -4.8064  -14.2212  -22.4103 O   0  0  0  0  0  0
   -5.5492  -12.0188  -22.8235 C   0  0  0  0  0  0
   -6.9045  -12.2981  -23.1089 C   0  0  0  0  0  0
   -7.6889  -11.3706  -23.8230 C   0  0  0  0  0  0
   -7.1211  -10.1612  -24.2656 C   0  0  0  0  0  0
   -5.7650   -9.8861  -24.0092 C   0  0  0  0  0  0
   -4.9785  -10.8153  -23.3011 C   0  0  0  0  0  0
   -7.8770   -9.2655  -24.9423 F   0  0  0  0  0  0
   -4.0991  -14.2860  -16.7529 H   0  0  0  0  0  0
   -4.9295   -9.6963  -18.3768 H   0  0  0  0  0  0
   -4.0540  -14.7945  -19.2933 H   0  0  0  0  0  0
   -2.4856  -14.4056  -18.6230 H   0  0  0  0  0  0
   -2.5844  -14.3003  -21.1938 H   0  0  0  0  0  0
   -1.9482  -12.8785  -20.4244 H   0  0  0  0  0  0
   -3.1209  -10.7760  -20.4364 H   0  0  0  0  0  0
   -4.8540  -10.7751  -20.6417 H   0  0  0  0  0  0
   -5.8772   -9.2653  -16.2567 H   0  0  0  0  0  0
   -7.3498  -13.2236  -22.7746 H   0  0  0  0  0  0
   -8.7282  -11.5803  -24.0276 H   0  0  0  0  0  0
   -5.3285   -8.9623  -24.3597 H   0  0  0  0  0  0
   -3.9352  -10.5951  -23.1268 H   0  0  0  0  0  0
  1  2  2  0  0  0
  1 12  1  0  0  0
  1  4  1  0  0  0
  2  6  1  0  0  0
  2 22  1  0  0  0
  3 23  1  0  0  0
  3  5  1  0  0  0
  3  4  2  0  0  0
  4 11  1  0  0  0
  5 10  1  0  0  0
  5  6  2  0  0  0
  6  7  1  0  0  0
  7  8  1  0  0  0
  7 24  1  0  0  0
  7 25  1  0  0  0
  8  9  1  0  0  0
  8 26  1  0  0  0
  8 27  1  0  0  0
  9 10  1  0  0  0
  9 13  1  0  0  0
 10 28  1  0  0  0
 10 29  1  0  0  0
 11 30  1  0  0  0
 13 14  2  0  0  0
 13 15  1  0  0  0
 15 16  2  0  0  0
 15 20  1  0  0  0
 16 17  1  0  0  0
 16 31  1  0  0  0
 17 18  2  0  0  0
 17 32  1  0  0  0
 18 19  1  0  0  0
 18 21  1  0  0  0
 19 20  2  0  0  0
 19 33  1  0  0  0
 20 34  1  0  0  0
M  CHG  2   6   1  12  -1
M  END
> <s_m_entry_id>
349

> <s_m_entry_name>
glide-dock_SP_comt_chembl_pv.348

> <s_m_Source_Path>
/home/csk/Desktop/cluster/DUD-E-result/comt/glide-dock_SP_comt_chembl

> <s_m_Source_File>
glide-dock_SP_comt_chembl_pv.maegz

> <i_m_Source_File_Index>
348

> <chembl_id>
CHEMBL4526054

> <chembl_pref_name>
None

> <i_lp_mmshare_version>
53161

> <i_f3d_flags>
0

> <r_lp_tautomer_probability>
0.995892618013405

> <s_lp_Force_Field>
OPLS_2005

> <r_lp_Energy>
26.865208

> <b_lp_Chiralities_Consistent>
1

> <s_lp_Variant>
CHEMBL2023_lig85 -1

> <s_i_glide_gridfile>
glide-grid_3bwm

> <i_i_glide_lignum>
107

> <i_i_glide_rotatable_bonds>
3

> <r_i_docking_score>
-7.25164639220914

> <r_i_glide_ligand_efficiency>
-0.345316494867102

> <r_i_glide_ligand_efficiency_sa>
-0.952702025225194

> <r_i_glide_ligand_efficiency_ln>
-1.79295491714244

> <r_i_glide_gscore>
-7.25164639220914

> <r_i_glide_lipo>
-0.702959706463851

> <r_i_glide_hbond>
-0.110734067884012

> <r_i_glide_metal>
-2.3

> <r_i_glide_rewards>
-1.64691195174249

> <r_i_glide_evdw>
-21.3475914001465

> <r_i_glide_ecoul>
-12.4095878601074

> <r_i_glide_erotb>
0.437777082904651

> <r_i_glide_esite>
0

> <r_i_glide_emodel>
-66.7768211886132

> <r_i_glide_energy>
-33.7571792602539

> <r_i_glide_einternal>
0.452796161174774

> <i_i_glide_confnum>
2

> <i_i_glide_posenum>
71

> <r_i_glide_eff_state_penalty>
0

> <s_user_duplicate_titles>
CHEMBL2023_lig85 ,CHEMBL2023_lig85 

> <s_m_subgroup_title>
glide-dock_SP_comt_chembl_pv

> <s_m_subgroupid>
glide-dock_SP_comt_chembl_pv

> <b_m_subgroup_collapsed>
1

$$$$
CHEMBL2023_lig28
                    3D
 Schrodinger Suite 2021-1.
 27 27  0  0  1  0            999 V2000
   -4.4967  -11.3089  -16.6484 C   0  0  0  0  0  0
   -3.9231  -11.0843  -17.9174 C   0  0  0  0  0  0
   -4.2962  -13.6845  -17.0467 C   0  0  0  0  0  0
   -4.6985  -12.6240  -16.2230 C   0  0  0  0  0  0
   -3.6752  -13.4271  -18.2872 C   0  0  0  0  0  0
   -3.5154  -12.1260  -18.6966 N   0  3  0  0  0  0
   -5.2540  -12.8632  -15.0040 O   0  0  0  0  0  0
   -4.8540  -10.2860  -15.8230 O   0  5  0  0  0  0
   -3.1372  -14.6268  -19.0715 C   0  0  0  0  0  0
   -3.6540  -14.7891  -20.3741 O   0  0  0  0  0  0
   -2.8343  -11.7935  -19.9723 C   0  0  0  0  0  0
   -3.8014  -11.7085  -21.1621 C   0  0  0  0  0  0
   -4.4539  -10.4548  -21.1769 O   0  0  0  0  0  0
   -5.2275  -10.2861  -22.3551 C   0  0  0  0  0  0
   -3.7574  -10.0912  -18.3098 H   0  0  0  0  0  0
   -4.4540  -14.6987  -16.7058 H   0  0  0  0  0  0
   -5.7316  -13.6988  -15.0480 H   0  0  0  0  0  0
   -2.0540  -14.5890  -19.1170 H   0  0  0  0  0  0
   -3.3708  -15.5425  -18.5265 H   0  0  0  0  0  0
   -3.1374  -14.2860  -20.9862 H   0  0  0  0  0  0
   -2.0655  -12.5406  -20.1600 H   0  0  0  0  0  0
   -2.2993  -10.8516  -19.8422 H   0  0  0  0  0  0
   -4.5431  -12.5070  -21.1382 H   0  0  0  0  0  0
   -3.2287  -11.8247  -22.0838 H   0  0  0  0  0  0
   -5.7705   -9.3451  -22.3119 H   0  0  0  0  0  0
   -5.9603  -11.0860  -22.4707 H   0  0  0  0  0  0
   -4.5942  -10.2637  -23.2429 H   0  0  0  0  0  0
  1  2  2  0  0  0
  1  8  1  0  0  0
  1  4  1  0  0  0
  2  6  1  0  0  0
  2 15  1  0  0  0
  3 16  1  0  0  0
  3  5  1  0  0  0
  3  4  2  0  0  0
  4  7  1  0  0  0
  5  9  1  0  0  0
  5  6  2  0  0  0
  6 11  1  0  0  0
  7 17  1  0  0  0
  9 10  1  0  0  0
  9 18  1  0  0  0
  9 19  1  0  0  0
 10 20  1  0  0  0
 11 12  1  0  0  0
 11 21  1  0  0  0
 11 22  1  0  0  0
 12 13  1  0  0  0
 12 23  1  0  0  0
 12 24  1  0  0  0
 13 14  1  0  0  0
 14 25  1  0  0  0
 14 26  1  0  0  0
 14 27  1  0  0  0
M  CHG  2   6   1   8  -1
M  END
> <s_m_entry_id>
351

> <s_m_entry_name>
glide-dock_SP_comt_chembl_pv.350

> <s_m_Source_Path>
/home/csk/Desktop/cluster/DUD-E-result/comt/glide-dock_SP_comt_chembl

> <s_m_Source_File>
glide-dock_SP_comt_chembl_pv.maegz

> <i_m_Source_File_Index>
350

> <chembl_id>
CHEMBL3425724

> <chembl_pref_name>
None

> <i_lp_mmshare_version>
53161

> <i_f3d_flags>
0

> <r_lp_tautomer_probability>
0.995892618013405

> <s_lp_Force_Field>
OPLS_2005

> <r_lp_Energy>
5.067282

> <b_lp_Chiralities_Consistent>
1

> <s_lp_Variant>
CHEMBL2023_lig28-1

> <s_i_glide_gridfile>
glide-grid_3bwm

> <i_i_glide_lignum>
37

> <i_i_glide_rotatable_bonds>
6

> <r_i_docking_score>
-7.24964801187209

> <r_i_glide_ligand_efficiency>
-0.517832000848006

> <r_i_glide_ligand_efficiency_sa>
-1.24804878988831

> <r_i_glide_ligand_efficiency_ln>
-1.9921774666404

> <r_i_glide_gscore>
-7.24964801187209

> <r_i_glide_lipo>
-0.564586253859837

> <r_i_glide_hbond>
-0.318500067176797

> <r_i_glide_metal>
-2.14665622915557

> <r_i_glide_rewards>
-2.05088304545455

> <r_i_glide_evdw>
-12.694429397583

> <r_i_glide_ecoul>
-18.4497985839844

> <r_i_glide_erotb>
1.23316884125147

> <r_i_glide_esite>
0

> <r_i_glide_emodel>
-64.3557295747408

> <r_i_glide_energy>
-31.1442279815674

> <r_i_glide_einternal>
3.80712342262268

> <i_i_glide_confnum>
17

> <i_i_glide_posenum>
126

> <r_i_glide_eff_state_penalty>
0

> <s_user_duplicate_titles>
CHEMBL2023_lig28

> <s_m_subgroup_title>
glide-dock_SP_comt_chembl_pv

> <s_m_subgroupid>
glide-dock_SP_comt_chembl_pv

> <b_m_subgroup_collapsed>
1

$$$$
CHEMBL2023_lig73
                    3D
 Schrodinger Suite 2021-1.
 37 39  0  0  1  0            999 V2000
   -2.8540   -9.1072  -20.7637 O   0  0  0  0  0  0
   -3.1082  -10.5197  -21.0617 S   0  0  0  0  0  0
   -2.0490  -11.2948  -21.7255 O   0  0  0  0  0  0
   -3.5724  -13.5789  -18.4516 C   0  0  0  0  0  0
   -3.2540  -12.7545  -19.5381 C   0  0  0  0  0  0
   -3.5435  -11.3832  -19.5341 C   0  0  0  0  0  0
   -4.1778  -12.9911  -17.3046 C   0  0  0  0  0  0
   -4.5227  -11.6086  -17.2784 C   0  0  0  0  0  0
   -4.1931  -10.7990  -18.4101 C   0  0  0  0  0  0
   -4.5496   -9.4304  -18.3601 C   0  0  0  0  0  0
   -5.2654   -8.9260  -17.2706 C   0  0  0  0  0  0
   -5.5943   -9.7995  -16.2373 C   0  0  0  0  0  0
   -5.1836  -11.0860  -16.1956 N   0  0  0  0  0  0
   -4.4540  -13.7556  -16.2027 O   0  0  0  0  0  0
   -4.6105  -10.5938  -22.1265 C   0  0  0  0  0  0
   -3.3112  -15.0823  -18.6350 C   0  0  0  0  0  0
   -4.3652   -9.8932  -23.4738 C   0  0  0  0  0  0
   -4.2890  -11.0123  -24.5115 C   0  0  0  0  0  0
   -5.2437  -12.0747  -23.9740 C   0  0  0  0  0  0
   -5.0278  -12.0395  -22.4600 C   0  0  0  0  0  0
   -4.0539  -15.8042  -17.8246 F   0  0  0  0  0  0
   -3.6540  -15.4096  -19.8748 F   0  0  0  0  0  0
   -2.0540  -15.4860  -18.4959 F   0  0  0  0  0  0
   -2.7866  -13.1986  -20.4051 H   0  0  0  0  0  0
   -4.3336   -8.7259  -19.1348 H   0  0  0  0  0  0
   -5.5821   -7.8914  -17.2359 H   0  0  0  0  0  0
   -6.1919   -9.4374  -15.4174 H   0  0  0  0  0  0
   -5.3144  -14.2073  -16.2229 H   0  0  0  0  0  0
   -5.3960  -10.0691  -21.5912 H   0  0  0  0  0  0
   -5.2110   -9.2439  -23.7032 H   0  0  0  0  0  0
   -3.4717   -9.2684  -23.4763 H   0  0  0  0  0  0
   -4.5540  -10.6743  -25.5133 H   0  0  0  0  0  0
   -3.2745  -11.4111  -24.5477 H   0  0  0  0  0  0
   -6.2724  -11.7959  -24.2066 H   0  0  0  0  0  0
   -5.0606  -13.0609  -24.4024 H   0  0  0  0  0  0
   -4.2314  -12.7389  -22.2092 H   0  0  0  0  0  0
   -5.9164  -12.3496  -21.9086 H   0  0  0  0  0  0
  1  2  2  0  0  0
  2  3  2  0  0  0
  2  6  1  0  0  0
  2 15  1  0  0  0
  4  5  2  0  0  0
  4  7  1  0  0  0
  4 16  1  0  0  0
  5  6  1  0  0  0
  5 24  1  0  0  0
  6  9  2  0  0  0
  7  8  2  0  0  0
  7 14  1  0  0  0
  8  9  1  0  0  0
  8 13  1  0  0  0
  9 10  1  0  0  0
 10 11  2  0  0  0
 10 25  1  0  0  0
 11 12  1  0  0  0
 11 26  1  0  0  0
 12 13  2  0  0  0
 12 27  1  0  0  0
 14 28  1  0  0  0
 15 17  1  0  0  0
 15 20  1  0  0  0
 15 29  1  0  0  0
 16 21  1  0  0  0
 16 22  1  0  0  0
 16 23  1  0  0  0
 17 18  1  0  0  0
 17 30  1  0  0  0
 17 31  1  0  0  0
 18 19  1  0  0  0
 18 32  1  0  0  0
 18 33  1  0  0  0
 19 20  1  0  0  0
 19 34  1  0  0  0
 19 35  1  0  0  0
 20 36  1  0  0  0
 20 37  1  0  0  0
M  END
> <s_m_entry_id>
353

> <s_m_entry_name>
glide-dock_SP_comt_chembl_pv.352

> <s_m_Source_Path>
/home/csk/Desktop/cluster/DUD-E-result/comt/glide-dock_SP_comt_chembl

> <s_m_Source_File>
glide-dock_SP_comt_chembl_pv.maegz

> <i_m_Source_File_Index>
352

> <chembl_id>
CHEMBL4176829

> <chembl_pref_name>
None

> <i_lp_mmshare_version>
53161

> <i_f3d_flags>
0

> <r_lp_tautomer_probability>
1

> <s_lp_Force_Field>
OPLS_2005

> <r_lp_Energy>
24.538

> <b_lp_Chiralities_Consistent>
1

> <s_lp_Variant>
CHEMBL2023_lig73-1

> <s_i_glide_gridfile>
glide-grid_3bwm

> <i_i_glide_lignum>
95

> <i_i_glide_rotatable_bonds>
4

> <r_i_docking_score>
-7.24175033649309

> <r_i_glide_ligand_efficiency>
-0.314858710282308

> <r_i_glide_ligand_efficiency_sa>
-0.895416288554649

> <r_i_glide_ligand_efficiency_ln>
-1.75112089592562

> <r_i_glide_gscore>
-7.24175033649309

> <r_i_glide_lipo>
-0.780543568829876

> <r_i_glide_hbond>
-0.225243037427578

> <r_i_glide_metal>
-1.64584117112657

> <r_i_glide_rewards>
-1.1211818780303

> <r_i_glide_evdw>
-16.277416229248

> <r_i_glide_ecoul>
-18.8261203765869

> <r_i_glide_erotb>
0.318612251752386

> <r_i_glide_esite>
-0.149764064880704

> <r_i_glide_emodel>
-49.3644159974249

> <r_i_glide_energy>
-35.103536605835

> <r_i_glide_einternal>
9.58669376373291

> <i_i_glide_confnum>
6

> <i_i_glide_posenum>
207

> <r_i_glide_eff_state_penalty>
0

> <s_user_duplicate_titles>
CHEMBL2023_lig73,CHEMBL2023_lig73

> <s_m_subgroup_title>
glide-dock_SP_comt_chembl_pv

> <s_m_subgroupid>
glide-dock_SP_comt_chembl_pv

> <b_m_subgroup_collapsed>
1

$$$$
CHEMBL2023_lig92 
                    3D
 Schrodinger Suite 2021-1.
 38 40  0  0  1  0            999 V2000
   -4.8539  -12.3415  -16.1685 C   0  0  0  0  0  0
   -4.2964  -13.3176  -17.0209 C   0  0  0  0  0  0
   -4.6686  -10.7350  -17.9805 C   0  0  0  0  0  0
   -4.9949  -11.0238  -16.6425 C   0  0  0  0  0  0
   -4.1806  -11.7686  -18.8087 C   0  0  0  0  0  0
   -3.9540  -13.0126  -18.2972 N   0  3  0  0  0  0
   -3.3445  -14.0802  -19.1353 C   0  0  0  0  0  0
   -2.9685  -13.6272  -20.5607 C   0  0  0  0  0  0
   -3.9967  -12.7391  -21.0786 N   0  0  1  0  0  0
   -3.9350  -11.5144  -20.2848 C   0  0  0  0  0  0
   -5.4823  -10.0543  -15.8232 O   0  0  0  0  0  0
   -5.2540  -12.6860  -14.9072 O   0  5  0  0  0  0
   -3.7541  -12.4525  -22.4905 C   0  0  0  0  0  0
   -4.8841  -11.6745  -23.1402 C   0  0  0  0  0  0
   -6.1707  -12.2451  -23.2295 C   0  0  0  0  0  0
   -7.2251  -11.5249  -23.8233 C   0  0  0  0  0  0
   -7.0035  -10.2260  -24.3308 C   0  0  0  0  0  0
   -5.7125   -9.6619  -24.2454 C   0  0  0  0  0  0
   -4.6572  -10.3803  -23.6513 C   0  0  0  0  0  0
   -8.1322   -9.4411  -24.9818 C   0  0  0  0  0  0
   -9.3257   -9.9147  -24.6223 F   0  0  0  0  0  0
   -8.0628   -8.1582  -24.6278 F   0  0  0  0  0  0
   -8.0183   -9.5292  -26.3062 F   0  0  0  0  0  0
   -4.1472  -14.3425  -16.7116 H   0  0  0  0  0  0
   -4.8299   -9.7458  -18.3853 H   0  0  0  0  0  0
   -4.0540  -14.9038  -19.1700 H   0  0  0  0  0  0
   -2.4564  -14.4460  -18.6228 H   0  0  0  0  0  0
   -2.8651  -14.5048  -21.2007 H   0  0  0  0  0  0
   -2.0041  -13.1183  -20.5679 H   0  0  0  0  0  0
   -2.9686  -11.0221  -20.4057 H   0  0  0  0  0  0
   -4.6949  -10.8149  -20.6366 H   0  0  0  0  0  0
   -5.7872   -9.2705  -16.2657 H   0  0  0  0  0  0
   -3.6563  -13.3924  -23.0358 H   0  0  0  0  0  0
   -2.8094  -11.9206  -22.6162 H   0  0  0  0  0  0
   -6.3501  -13.2352  -22.8366 H   0  0  0  0  0  0
   -8.2056  -11.9724  -23.8853 H   0  0  0  0  0  0
   -5.5307   -8.6710  -24.6359 H   0  0  0  0  0  0
   -3.6762   -9.9324  -23.5894 H   0  0  0  0  0  0
  1  2  2  0  0  0
  1 12  1  0  0  0
  1  4  1  0  0  0
  2  6  1  0  0  0
  2 24  1  0  0  0
  3 25  1  0  0  0
  3  5  1  0  0  0
  3  4  2  0  0  0
  4 11  1  0  0  0
  5 10  1  0  0  0
  5  6  2  0  0  0
  6  7  1  0  0  0
  7  8  1  0  0  0
  7 26  1  0  0  0
  7 27  1  0  0  0
  8  9  1  0  0  0
  8 28  1  0  0  0
  8 29  1  0  0  0
  9 10  1  0  0  0
  9 13  1  0  0  0
 10 30  1  0  0  0
 10 31  1  0  0  0
 11 32  1  0  0  0
 13 14  1  0  0  0
 13 33  1  0  0  0
 13 34  1  0  0  0
 14 15  2  0  0  0
 14 19  1  0  0  0
 15 16  1  0  0  0
 15 35  1  0  0  0
 16 17  2  0  0  0
 16 36  1  0  0  0
 17 18  1  0  0  0
 17 20  1  0  0  0
 18 19  2  0  0  0
 18 37  1  0  0  0
 19 38  1  0  0  0
 20 21  1  0  0  0
 20 22  1  0  0  0
 20 23  1  0  0  0
M  CHG  2   6   1  12  -1
M  END
> <s_m_entry_id>
361

> <s_m_entry_name>
glide-dock_SP_comt_chembl_pv.360

> <s_m_Source_Path>
/home/csk/Desktop/cluster/DUD-E-result/comt/glide-dock_SP_comt_chembl

> <s_m_Source_File>
glide-dock_SP_comt_chembl_pv.maegz

> <i_m_Source_File_Index>
360

> <chembl_id>
CHEMBL4442598

> <chembl_pref_name>
None

> <i_lp_mmshare_version>
53161

> <i_f3d_flags>
0

> <r_lp_tautomer_probability>
0.995892618013405

> <s_lp_Force_Field>
OPLS_2005

> <r_lp_Energy>
17.85363

> <b_lp_Chiralities_Consistent>
1

> <s_lp_Variant>
CHEMBL2023_lig92 -1

> <s_i_glide_gridfile>
glide-grid_3bwm

> <i_i_glide_lignum>
114

> <i_i_glide_rotatable_bonds>
4

> <r_i_docking_score>
-7.21414157190937

> <r_i_glide_ligand_efficiency>
-0.313658329213451

> <r_i_glide_ligand_efficiency_sa>
-0.892002564473255

> <r_i_glide_ligand_efficiency_ln>
-1.74444484630685

> <r_i_glide_gscore>
-7.21414157190937

> <r_i_glide_lipo>
-0.730213958895663

> <r_i_glide_hbond>
-0.114262347945405

> <r_i_glide_metal>
-2.3

> <r_i_glide_rewards>
-1.49797016590909

> <r_i_glide_evdw>
-20.9722480773926

> <r_i_glide_ecoul>
-12.5057668685913

> <r_i_glide_erotb>
0.356107821550745

> <r_i_glide_esite>
-0.00332548655163592

> <r_i_glide_emodel>
-67.8175250935084

> <r_i_glide_energy>
-33.4780149459839

> <r_i_glide_einternal>
0.314081341028214

> <i_i_glide_confnum>
2

> <i_i_glide_posenum>
348

> <r_i_glide_eff_state_penalty>
0

> <s_user_duplicate_titles>
CHEMBL2023_lig92 ,CHEMBL2023_lig92 ,CHEMBL2023_lig92 

> <s_m_subgroup_title>
glide-dock_SP_comt_chembl_pv

> <s_m_subgroupid>
glide-dock_SP_comt_chembl_pv

> <b_m_subgroup_collapsed>
1

$$$$
CHEMBL2023_lig23
                    3D
 Schrodinger Suite 2021-1.
 33 34  0  0  1  0            999 V2000
   -4.8563  -11.2672  -16.6642 C   0  0  0  0  0  0
   -4.5602  -10.9731  -18.0034 C   0  0  0  0  0  0
   -4.3335  -13.5895  -17.0953 C   0  0  0  0  0  0
   -4.8140  -12.5949  -16.2230 C   0  0  0  0  0  0
   -3.9576  -13.2495  -18.4178 C   0  0  0  0  0  0
   -4.1431  -11.9593  -18.8334 N   0  3  0  0  0  0
   -5.2540  -12.9006  -14.9667 O   0  0  0  0  0  0
   -5.2540  -10.2860  -15.8230 O   0  5  0  0  0  0
   -3.3410  -14.2913  -19.3562 C   0  0  0  0  0  0
   -2.8894  -15.4662  -18.7107 O   0  0  0  0  0  0
   -3.9195  -11.5839  -20.2063 C   0  0  0  0  0  0
   -2.9363  -10.6228  -20.5583 C   0  0  0  0  0  0
   -2.7818  -10.2679  -21.9149 C   0  0  0  0  0  0
   -3.5974  -10.8459  -22.9083 C   0  0  0  0  0  0
   -4.5817  -11.7870  -22.5485 C   0  0  0  0  0  0
   -4.7456  -12.1540  -21.2007 C   0  0  0  0  0  0
   -3.4249  -10.4395  -24.3573 C   0  0  0  0  0  0
   -2.0540   -9.9446  -19.5241 C   0  0  0  0  0  0
   -4.6629   -9.9825  -18.4242 H   0  0  0  0  0  0
   -4.2693  -14.6074  -16.7399 H   0  0  0  0  0  0
   -5.6827  -13.7628  -14.9875 H   0  0  0  0  0  0
   -2.4812  -13.8562  -19.8674 H   0  0  0  0  0  0
   -4.0540  -14.5829  -20.1248 H   0  0  0  0  0  0
   -3.6178  -15.8877  -18.2785 H   0  0  0  0  0  0
   -2.0380   -9.5389  -22.2027 H   0  0  0  0  0  0
   -5.2205  -12.2222  -23.3036 H   0  0  0  0  0  0
   -5.5203  -12.8589  -20.9356 H   0  0  0  0  0  0
   -2.3694  -10.3090  -24.5984 H   0  0  0  0  0  0
   -3.8329  -11.1947  -25.0300 H   0  0  0  0  0  0
   -3.9400   -9.4972  -24.5465 H   0  0  0  0  0  0
   -1.0236   -9.8860  -19.8743 H   0  0  0  0  0  0
   -2.4294   -8.9393  -19.3259 H   0  0  0  0  0  0
   -2.0331  -10.4846  -18.5807 H   0  0  0  0  0  0
  1  2  2  0  0  0
  1  8  1  0  0  0
  1  4  1  0  0  0
  2  6  1  0  0  0
  2 19  1  0  0  0
  3 20  1  0  0  0
  3  5  1  0  0  0
  3  4  2  0  0  0
  4  7  1  0  0  0
  5  9  1  0  0  0
  5  6  2  0  0  0
  6 11  1  0  0  0
  7 21  1  0  0  0
  9 10  1  0  0  0
  9 22  1  0  0  0
  9 23  1  0  0  0
 10 24  1  0  0  0
 11 12  2  0  0  0
 11 16  1  0  0  0
 12 13  1  0  0  0
 12 18  1  0  0  0
 13 14  2  0  0  0
 13 25  1  0  0  0
 14 15  1  0  0  0
 14 17  1  0  0  0
 15 16  2  0  0  0
 15 26  1  0  0  0
 16 27  1  0  0  0
 17 28  1  0  0  0
 17 29  1  0  0  0
 17 30  1  0  0  0
 18 31  1  0  0  0
 18 32  1  0  0  0
 18 33  1  0  0  0
M  CHG  2   6   1   8  -1
M  END
> <s_m_entry_id>
369

> <s_m_entry_name>
glide-dock_SP_comt_chembl_pv.368

> <s_m_Source_Path>
/home/csk/Desktop/cluster/DUD-E-result/comt/glide-dock_SP_comt_chembl

> <s_m_Source_File>
glide-dock_SP_comt_chembl_pv.maegz

> <i_m_Source_File_Index>
368

> <chembl_id>
CHEMBL3425728

> <chembl_pref_name>
None

> <i_lp_mmshare_version>
53161

> <i_f3d_flags>
0

> <r_lp_tautomer_probability>
0.995892618013405

> <s_lp_Force_Field>
OPLS_2005

> <r_lp_Energy>
20.043695

> <b_lp_Chiralities_Consistent>
1

> <s_lp_Variant>
CHEMBL2023_lig23-1

> <s_i_glide_gridfile>
glide-grid_3bwm

> <i_i_glide_lignum>
32

> <i_i_glide_rotatable_bonds>
4

> <r_i_docking_score>
-7.19202080958586

> <r_i_glide_ligand_efficiency>
-0.399556711643659

> <r_i_glide_ligand_efficiency_sa>
-1.04713481252965

> <r_i_glide_ligand_efficiency_ln>
-1.8486718640676

> <r_i_glide_gscore>
-7.19202080958586

> <r_i_glide_lipo>
-0.543751378993612

> <r_i_glide_hbond>
0

> <r_i_glide_metal>
-2.06462968037809

> <r_i_glide_rewards>
-2.03676954545455

> <r_i_glide_evdw>
-18.0370845794678

> <r_i_glide_ecoul>
-14.8241319656372

> <r_i_glide_erotb>
0.578603819059368

> <r_i_glide_esite>
0

> <r_i_glide_emodel>
-64.1517265453671

> <r_i_glide_energy>
-32.861216545105

> <r_i_glide_einternal>
2.67888474464417

> <i_i_glide_confnum>
11

> <i_i_glide_posenum>
323

> <r_i_glide_eff_state_penalty>
0

> <s_user_duplicate_titles>
CHEMBL2023_lig23,CHEMBL2023_lig23,CHEMBL2023_lig23,CHEMBL2023_lig23,CHEMBL2023_lig23

> <s_m_subgroup_title>
glide-dock_SP_comt_chembl_pv

> <s_m_subgroupid>
glide-dock_SP_comt_chembl_pv

> <b_m_subgroup_collapsed>
1

$$$$
CHEMBL2023_lig113 
                    3D
 Schrodinger Suite 2021-1.
 42 42  0  0  1  0            999 V2000
   -4.8540  -12.3065  -16.5427 C   0  0  0  0  0  0
   -4.6712  -10.9354  -16.7806 C   0  0  0  0  0  0
   -4.0557  -10.5112  -17.9824 C   0  0  0  0  0  0
   -3.6233  -11.4799  -18.9105 C   0  0  0  0  0  0
   -3.8862  -12.8569  -18.7438 C   0  0  0  0  0  0
   -4.5036  -13.2561  -17.5303 C   0  0  0  0  0  0
   -3.5580  -13.7932  -19.8677 C   0  0  0  0  0  0
   -3.8026  -13.4648  -21.1705 C   0  0  0  0  0  0
   -2.9074  -14.9928  -19.5619 N   0  0  0  0  0  0
   -4.4268  -12.2611  -21.6108 C   0  0  0  0  0  0
   -3.4601  -14.3349  -22.2883 C   0  0  0  0  0  0
   -2.1696  -14.2633  -22.7213 N   0  0  0  0  0  0
   -4.2885  -15.0854  -22.8041 O   0  0  0  0  0  0
   -1.7017  -15.1680  -23.7863 C   0  0  0  0  0  0
   -1.1362  -13.3544  -22.1838 C   0  0  0  0  0  0
   -1.1399  -11.9883  -22.8857 C   0  0  0  0  0  0
   -2.1560  -14.7114  -25.1826 C   0  0  0  0  0  0
   -4.8540  -11.2605  -22.0029 N   0  0  0  0  0  0
   -5.4052  -12.6860  -15.3477 O   0  0  0  0  0  0
   -5.1100  -10.0597  -15.8230 O   0  0  0  0  0  0
   -3.8578   -9.0899  -18.3012 N   0  3  0  0  0  0
   -2.9087   -8.8006  -19.0230 O   0  5  0  0  0  0
   -4.6365   -8.2743  -17.8228 O   0  0  0  0  0  0
   -2.7835  -15.7293  -18.3205 C   0  0  0  0  0  0
   -3.1200  -11.1421  -19.8038 H   0  0  0  0  0  0
   -4.7416  -14.2940  -17.3538 H   0  0  0  0  0  0
   -2.4541  -15.4596  -20.3361 H   0  0  0  0  0  0
   -2.0654  -16.1799  -23.5971 H   0  0  0  0  0  0
   -0.6153  -15.2558  -23.7837 H   0  0  0  0  0  0
   -1.2540  -13.2024  -21.1128 H   0  0  0  0  0  0
   -0.1448  -13.7980  -22.2785 H   0  0  0  0  0  0
   -0.3846  -11.3324  -22.4518 H   0  0  0  0  0  0
   -0.9134  -12.0873  -23.9470 H   0  0  0  0  0  0
   -2.1003  -11.4832  -22.7966 H   0  0  0  0  0  0
   -1.7918  -15.3967  -25.9481 H   0  0  0  0  0  0
   -1.7739  -13.7197  -25.4222 H   0  0  0  0  0  0
   -3.2424  -14.6793  -25.2650 H   0  0  0  0  0  0
   -5.7997  -13.5663  -15.4239 H   0  0  0  0  0  0
   -5.2548   -9.1810  -16.1704 H   0  0  0  0  0  0
   -2.0303  -16.5100  -18.4285 H   0  0  0  0  0  0
   -2.4792  -15.0860  -17.5013 H   0  0  0  0  0  0
   -3.7302  -16.2063  -18.0677 H   0  0  0  0  0  0
  1  2  2  0  0  0
  1  6  1  0  0  0
  1 19  1  0  0  0
  2  3  1  0  0  0
  2 20  1  0  0  0
  3  4  2  0  0  0
  3 21  1  0  0  0
  4  5  1  0  0  0
  4 25  1  0  0  0
  5  6  2  0  0  0
  5  7  1  0  0  0
  6 26  1  0  0  0
  7  8  2  0  0  0
  7  9  1  0  0  0
  8 10  1  0  0  0
  8 11  1  0  0  0
  9 24  1  0  0  0
  9 27  1  0  0  0
 10 18  3  0  0  0
 11 12  1  0  0  0
 11 13  2  0  0  0
 12 14  1  0  0  0
 12 15  1  0  0  0
 14 17  1  0  0  0
 14 28  1  0  0  0
 14 29  1  0  0  0
 15 16  1  0  0  0
 15 30  1  0  0  0
 15 31  1  0  0  0
 16 32  1  0  0  0
 16 33  1  0  0  0
 16 34  1  0  0  0
 17 35  1  0  0  0
 17 36  1  0  0  0
 17 37  1  0  0  0
 19 38  1  0  0  0
 20 39  1  0  0  0
 21 22  1  0  0  0
 21 23  2  0  0  0
 24 40  1  0  0  0
 24 41  1  0  0  0
 24 42  1  0  0  0
M  CHG  2  21   1  22  -1
M  END
> <s_m_entry_id>
394

> <s_m_entry_name>
glide-dock_SP_comt_chembl_pv.393

> <s_m_Source_Path>
/home/csk/Desktop/cluster/DUD-E-result/comt/glide-dock_SP_comt_chembl

> <s_m_Source_File>
glide-dock_SP_comt_chembl_pv.maegz

> <i_m_Source_File_Index>
393

> <chembl_id>
CHEMBL4438114

> <chembl_pref_name>
None

> <i_lp_mmshare_version>
53161

> <i_f3d_flags>
0

> <r_lp_tautomer_probability>
0.499999791798837

> <s_lp_Force_Field>
OPLS_2005

> <r_lp_Energy>
38.020257

> <b_lp_Chiralities_Consistent>
1

> <s_lp_Variant>
CHEMBL2023_lig113 -1

> <s_i_glide_gridfile>
glide-grid_3bwm

> <i_i_glide_lignum>
135

> <i_i_glide_rotatable_bonds>
9

> <r_i_docking_score>
-7.12232746143327

> <r_i_glide_ligand_efficiency>
-0.296763644226386

> <r_i_glide_ligand_efficiency_sa>
-0.856014475829912

> <r_i_glide_ligand_efficiency_ln>
-1.70469978383216

> <r_i_glide_gscore>
-7.12232746143327

> <r_i_glide_lipo>
-0.594884592813106

> <r_i_glide_hbond>
0

> <r_i_glide_metal>
-2.3

> <r_i_glide_rewards>
-1.12950059032061

> <r_i_glide_evdw>
-24.50364112854

> <r_i_glide_ecoul>
-16.7959308624268

> <r_i_glide_erotb>
0.674896677986222

> <r_i_glide_esite>
-0.0282672704947633

> <r_i_glide_emodel>
-59.5680478404573

> <r_i_glide_energy>
-41.2995719909668

> <r_i_glide_einternal>
11.2647800445557

> <i_i_glide_confnum>
30

> <i_i_glide_posenum>
82

> <r_i_glide_eff_state_penalty>
0

> <s_user_duplicate_titles>
CHEMBL2023_lig113 

> <s_m_subgroup_title>
glide-dock_SP_comt_chembl_pv

> <s_m_subgroupid>
glide-dock_SP_comt_chembl_pv

> <b_m_subgroup_collapsed>
1

$$$$
CHEMBL2023_lig43
                    3D
 Schrodinger Suite 2021-1.
 42 45  0  0  1  0            999 V2000
   -3.5817  -11.7521  -20.1677 C   0  0  0  0  0  0
   -4.0394  -12.0063  -18.8171 N   0  3  0  0  0  0
   -3.9984  -13.2934  -18.3846 C   0  0  0  0  0  0
   -4.4169  -13.6184  -17.0824 C   0  0  0  0  0  0
   -4.8457  -12.5924  -16.2230 C   0  0  0  0  0  0
   -4.8459  -11.2651  -16.6809 C   0  0  0  0  0  0
   -4.4482  -10.9869  -18.0135 C   0  0  0  0  0  0
   -5.2558  -12.8755  -14.9527 O   0  0  0  0  0  0
   -5.2455  -10.2842  -15.8274 O   0  5  0  0  0  0
   -2.4538  -12.3638  -20.5921 N   0  0  0  0  0  0
   -2.0179  -12.1501  -21.8470 C   0  0  0  0  0  0
   -2.7144  -11.3545  -22.7680 C   0  0  0  0  0  0
   -3.9224  -10.7497  -22.3738 C   0  0  0  0  0  0
   -4.3409  -10.9297  -21.0333 C   0  0  0  0  0  0
   -4.7271  -10.0125  -23.3592 C   0  0  0  0  0  0
   -4.2568   -9.2165  -24.4403 C   0  0  0  0  0  0
   -5.2583   -8.7395  -25.1650 N   0  0  0  0  0  0
   -6.3779   -9.2323  -24.5832 N   0  0  0  0  0  0
   -6.0845  -10.0049  -23.4779 C   0  0  0  0  0  0
   -7.6853   -8.8871  -25.1147 C   0  0  0  0  0  0
   -8.5304  -10.1223  -25.3839 C   0  0  0  0  0  0
   -8.0549  -11.1310  -26.2494 C   0  0  0  0  0  0
   -8.8445  -12.2654  -26.5194 C   0  0  0  0  0  0
  -10.1166  -12.3941  -25.9303 C   0  0  0  0  0  0
  -10.5940  -11.3922  -25.0639 C   0  0  0  0  0  0
   -9.8031  -10.2593  -24.7888 C   0  0  0  0  0  0
   -3.6572  -14.0406  -19.0869 H   0  0  0  0  0  0
   -4.4180  -14.6473  -16.7497 H   0  0  0  0  0  0
   -4.4278   -9.9914  -18.4334 H   0  0  0  0  0  0
   -5.6771  -13.7384  -14.9530 H   0  0  0  0  0  0
   -1.1004  -12.6442  -22.1302 H   0  0  0  0  0  0
   -2.3404  -11.2465  -23.7756 H   0  0  0  0  0  0
   -5.2548  -10.4711  -20.6917 H   0  0  0  0  0  0
   -3.2416   -8.9759  -24.7190 H   0  0  0  0  0  0
   -6.8546  -10.4866  -22.8963 H   0  0  0  0  0  0
   -7.5679   -8.3241  -26.0420 H   0  0  0  0  0  0
   -8.1830   -8.2297  -24.4003 H   0  0  0  0  0  0
   -7.0840  -11.0321  -26.7135 H   0  0  0  0  0  0
   -8.4781  -13.0299  -27.1887 H   0  0  0  0  0  0
  -10.7312  -13.2527  -26.1549 H   0  0  0  0  0  0
  -11.5771  -11.4822  -24.6228 H   0  0  0  0  0  0
  -10.1875   -9.4912  -24.1328 H   0  0  0  0  0  0
  1 10  2  0  0  0
  1 14  1  0  0  0
  1  2  1  0  0  0
  2  3  2  0  0  0
  2  7  1  0  0  0
  3  4  1  0  0  0
  3 27  1  0  0  0
  4 28  1  0  0  0
  4  5  2  0  0  0
  5  6  1  0  0  0
  5  8  1  0  0  0
  6  7  2  0  0  0
  6  9  1  0  0  0
  7 29  1  0  0  0
  8 30  1  0  0  0
 10 11  1  0  0  0
 11 12  2  0  0  0
 11 31  1  0  0  0
 12 13  1  0  0  0
 12 32  1  0  0  0
 13 14  2  0  0  0
 13 15  1  0  0  0
 14 33  1  0  0  0
 15 16  1  0  0  0
 15 19  2  0  0  0
 16 17  2  0  0  0
 16 34  1  0  0  0
 17 18  1  0  0  0
 18 19  1  0  0  0
 18 20  1  0  0  0
 19 35  1  0  0  0
 20 21  1  0  0  0
 20 36  1  0  0  0
 20 37  1  0  0  0
 21 22  2  0  0  0
 21 26  1  0  0  0
 22 23  1  0  0  0
 22 38  1  0  0  0
 23 24  2  0  0  0
 23 39  1  0  0  0
 24 25  1  0  0  0
 24 40  1  0  0  0
 25 26  2  0  0  0
 25 41  1  0  0  0
 26 42  1  0  0  0
M  CHG  2   2   1   9  -1
M  END
> <s_m_entry_id>
403

> <s_m_entry_name>
glide-dock_SP_comt_chembl_pv.402

> <s_m_Source_Path>
/home/csk/Desktop/cluster/DUD-E-result/comt/glide-dock_SP_comt_chembl

> <s_m_Source_File>
glide-dock_SP_comt_chembl_pv.maegz

> <i_m_Source_File_Index>
402

> <chembl_id>
CHEMBL3799623

> <chembl_pref_name>
None

> <i_lp_mmshare_version>
53161

> <i_f3d_flags>
0

> <r_lp_tautomer_probability>
0.995892618013405

> <s_lp_Force_Field>
OPLS_2005

> <r_lp_Energy>
20.441963

> <b_lp_Chiralities_Consistent>
1

> <s_lp_Variant>
CHEMBL2023_lig43-1

> <s_i_glide_gridfile>
glide-grid_3bwm

> <i_i_glide_lignum>
55

> <i_i_glide_rotatable_bonds>
5

> <r_i_docking_score>
-7.10475086456059

> <r_i_glide_ligand_efficiency>
-0.273259648636946

> <r_i_glide_ligand_efficiency_sa>
-0.809530633862155

> <r_i_glide_ligand_efficiency_ln>
-1.66852742795301

> <r_i_glide_gscore>
-7.10475086456059

> <r_i_glide_lipo>
-0.504412874049273

> <r_i_glide_hbond>
0

> <r_i_glide_metal>
-2.23032253044788

> <r_i_glide_rewards>
-1.36113654545454

> <r_i_glide_evdw>
-19.9259452819824

> <r_i_glide_ecoul>
-17.6866645812988

> <r_i_glide_erotb>
0.640418036685048

> <r_i_glide_esite>
0

> <r_i_glide_emodel>
-72.0627531671906

> <r_i_glide_energy>
-37.6126098632812

> <r_i_glide_einternal>
4.22643709182739

> <i_i_glide_confnum>
16

> <i_i_glide_posenum>
242

> <r_i_glide_eff_state_penalty>
0

> <s_user_duplicate_titles>
CHEMBL2023_lig43,CHEMBL2023_lig43

> <s_m_subgroup_title>
glide-dock_SP_comt_chembl_pv

> <s_m_subgroupid>
glide-dock_SP_comt_chembl_pv

> <b_m_subgroup_collapsed>
1

$$$$
CHEMBL2023_lig62
                    3D
 Schrodinger Suite 2021-1.
 46 49  0  0  1  0            999 V2000
   -1.5211  -12.2228  -21.0230 O   0  0  0  0  0  0
   -2.6682  -11.3398  -20.7748 S   0  0  0  0  0  0
   -2.4741   -9.8864  -20.8729 O   0  0  0  0  0  0
   -3.7870  -13.5657  -17.5249 C   0  0  0  0  0  0
   -3.2900  -13.1221  -18.7642 C   0  0  0  0  0  0
   -3.4290  -11.7766  -19.1637 C   0  0  0  0  0  0
   -4.4101  -12.6598  -16.6489 C   0  0  0  0  0  0
   -4.5977  -11.3161  -17.0240 C   0  0  0  0  0  0
   -4.1131  -10.8666  -18.2941 C   0  0  0  0  0  0
   -4.3683   -9.5133  -18.6207 C   0  0  0  0  0  0
   -5.0874   -8.6975  -17.7313 C   0  0  0  0  0  0
   -5.5291   -9.2488  -16.5226 C   0  0  0  0  0  0
   -5.2536  -10.5104  -16.1456 N   0  0  0  0  0  0
   -4.8555  -13.0861  -15.4246 O   0  0  0  0  0  0
   -3.8468  -11.8052  -21.9503 N   0  0  1  0  0  0
   -3.9174  -13.2184  -22.3620 C   0  0  1  0  0  0
   -5.4074  -13.5169  -22.5479 C   0  0  0  0  0  0
   -6.0831  -12.4664  -21.6776 C   0  0  0  0  0  0
   -5.1889  -11.2458  -21.8767 C   0  0  0  0  0  0
   -3.0583  -13.4645  -23.6164 C   0  0  0  0  0  0
   -3.0241  -14.9248  -24.0324 C   0  0  0  0  0  0
   -2.1111  -15.8100  -23.4219 C   0  0  0  0  0  0
   -2.0705  -17.1637  -23.8104 C   0  0  0  0  0  0
   -2.9462  -17.6374  -24.8072 C   0  0  0  0  0  0
   -3.8597  -16.7573  -25.4169 C   0  0  0  0  0  0
   -3.8986  -15.4025  -25.0313 C   0  0  0  0  0  0
   -3.6691  -14.6012  -17.2375 H   0  0  0  0  0  0
   -2.7795  -13.8268  -19.4040 H   0  0  0  0  0  0
   -4.0746   -9.0726  -19.5512 H   0  0  0  0  0  0
   -5.3189   -7.6714  -17.9779 H   0  0  0  0  0  0
   -6.1129   -8.6790  -15.8196 H   0  0  0  0  0  0
   -5.4188  -13.8658  -15.5054 H   0  0  0  0  0  0
   -3.5477  -13.8371  -21.5455 H   0  0  0  0  0  0
   -5.7048  -13.3770  -23.5876 H   0  0  0  0  0  0
   -5.6539  -14.5395  -22.2613 H   0  0  0  0  0  0
   -7.1214  -12.2860  -21.9553 H   0  0  0  0  0  0
   -6.0541  -12.7759  -20.6313 H   0  0  0  0  0  0
   -5.4172  -10.7414  -22.8161 H   0  0  0  0  0  0
   -5.2538  -10.5142  -21.0748 H   0  0  0  0  0  0
   -2.0334  -13.1371  -23.4398 H   0  0  0  0  0  0
   -3.4237  -12.8588  -24.4467 H   0  0  0  0  0  0
   -1.4381  -15.4525  -22.6570 H   0  0  0  0  0  0
   -1.3725  -17.8408  -23.3401 H   0  0  0  0  0  0
   -2.9153  -18.6761  -25.1045 H   0  0  0  0  0  0
   -4.5299  -17.1209  -26.1818 H   0  0  0  0  0  0
   -4.6012  -14.7330  -25.5047 H   0  0  0  0  0  0
  1  2  2  0  0  0
  2  3  2  0  0  0
  2  6  1  0  0  0
  2 15  1  0  0  0
  4  5  2  0  0  0
  4  7  1  0  0  0
  4 27  1  0  0  0
  5  6  1  0  0  0
  5 28  1  0  0  0
  6  9  2  0  0  0
  7  8  2  0  0  0
  7 14  1  0  0  0
  8  9  1  0  0  0
  8 13  1  0  0  0
  9 10  1  0  0  0
 10 11  2  0  0  0
 10 29  1  0  0  0
 11 12  1  0  0  0
 11 30  1  0  0  0
 12 13  2  0  0  0
 12 31  1  0  0  0
 14 32  1  0  0  0
 15 16  1  0  0  0
 15 19  1  0  0  0
 16 17  1  0  0  0
 16 20  1  0  0  0
 16 33  1  0  0  0
 17 18  1  0  0  0
 17 34  1  0  0  0
 17 35  1  0  0  0
 18 19  1  0  0  0
 18 36  1  0  0  0
 18 37  1  0  0  0
 19 38  1  0  0  0
 19 39  1  0  0  0
 20 21  1  0  0  0
 20 40  1  0  0  0
 20 41  1  0  0  0
 21 22  2  0  0  0
 21 26  1  0  0  0
 22 23  1  0  0  0
 22 42  1  0  0  0
 23 24  2  0  0  0
 23 43  1  0  0  0
 24 25  1  0  0  0
 24 44  1  0  0  0
 25 26  2  0  0  0
 25 45  1  0  0  0
 26 46  1  0  0  0
M  END
> <s_m_entry_id>
405

> <s_m_entry_name>
glide-dock_SP_comt_chembl_pv.404

> <s_m_Source_Path>
/home/csk/Desktop/cluster/DUD-E-result/comt/glide-dock_SP_comt_chembl

> <s_m_Source_File>
glide-dock_SP_comt_chembl_pv.maegz

> <i_m_Source_File_Index>
404

> <chembl_id>
CHEMBL4174978

> <chembl_pref_name>
None

> <i_lp_mmshare_version>
53161

> <i_f3d_flags>
0

> <r_lp_tautomer_probability>
1

> <s_lp_Force_Field>
OPLS_2005

> <r_lp_Energy>
20.840892

> <b_lp_Chiralities_Consistent>
1

> <s_lp_Variant>
CHEMBL2023_lig62-2

> <s_i_glide_gridfile>
glide-grid_3bwm

> <i_i_glide_lignum>
84

> <i_i_glide_rotatable_bonds>
5

> <r_i_docking_score>
-7.10027249847952

> <r_i_glide_ligand_efficiency>
-0.273087403787674

> <r_i_glide_ligand_efficiency_sa>
-0.809020359173938

> <r_i_glide_ligand_efficiency_ln>
-1.66747569837359

> <r_i_glide_gscore>
-7.10027249847952

> <r_i_glide_lipo>
-0.600568158163113

> <r_i_glide_hbond>
-0.380880999632343

> <r_i_glide_metal>
-1.74779031135831

> <r_i_glide_rewards>
-0.81544252037324

> <r_i_glide_evdw>
-23.9229373931885

> <r_i_glide_ecoul>
-19.1797637939453

> <r_i_glide_erotb>
0.567784364978031

> <r_i_glide_esite>
-0.0502634351793245

> <r_i_glide_emodel>
-65.1424920502666

> <r_i_glide_energy>
-43.1027011871338

> <r_i_glide_einternal>
11.6766223907471

> <i_i_glide_confnum>
16

> <i_i_glide_posenum>
190

> <r_i_glide_eff_state_penalty>
0

> <s_user_duplicate_titles>
CHEMBL2023_lig62,CHEMBL2023_lig62,CHEMBL2023_lig62

> <s_m_subgroup_title>
glide-dock_SP_comt_chembl_pv

> <s_m_subgroupid>
glide-dock_SP_comt_chembl_pv

> <b_m_subgroup_collapsed>
1

$$$$
CHEMBL2023_lig14
                    3D
 Schrodinger Suite 2021-1.
 42 44  0  0  1  0            999 V2000
   -4.8567  -12.2887  -16.2769 C   0  0  0  0  0  0
   -4.4540  -13.2415  -17.2391 C   0  0  0  0  0  0
   -4.3830  -10.5447  -17.9117 C   0  0  0  0  0  0
   -4.8665  -10.9315  -16.6561 C   0  0  0  0  0  0
   -3.8835  -11.5136  -18.8022 C   0  0  0  0  0  0
   -4.0083  -12.8430  -18.4640 N   0  3  0  0  0  0
   -5.3391   -9.9759  -15.8230 O   0  0  0  0  0  0
   -5.2540  -12.6860  -15.0230 O   0  5  0  0  0  0
   -3.6084  -13.8688  -19.4060 C   0  0  0  0  0  0
   -4.0509  -13.8075  -20.7464 C   0  0  0  0  0  0
   -3.4460  -14.5908  -21.7512 C   0  0  0  0  0  0
   -2.4236  -15.4860  -21.3672 C   0  0  0  0  0  0
   -2.0997  -15.6796  -20.0103 C   0  0  0  0  0  0
   -2.7205  -14.8949  -19.0230 C   0  0  0  0  0  0
   -3.8625  -14.4574  -23.1613 C   0  0  0  0  0  0
   -2.9143  -14.5203  -24.2085 C   0  0  0  0  0  0
   -3.3097  -14.3852  -25.5535 C   0  0  0  0  0  0
   -4.6648  -14.1843  -25.8726 C   0  0  0  0  0  0
   -5.6214  -14.1200  -24.8435 C   0  0  0  0  0  0
   -5.2212  -14.2562  -23.5002 C   0  0  0  0  0  0
   -3.1095  -11.0164  -20.0358 C   0  0  0  0  0  0
   -2.0473   -9.9835  -19.6373 C   0  0  0  0  0  0
   -4.0159  -10.4164  -21.1235 C   0  0  0  0  0  0
   -4.4890  -14.3044  -17.0442 H   0  0  0  0  0  0
   -4.3488   -9.4965  -18.1703 H   0  0  0  0  0  0
   -5.5505   -9.1492  -16.2418 H   0  0  0  0  0  0
   -4.8169  -13.1028  -21.0202 H   0  0  0  0  0  0
   -1.9347  -16.0990  -22.1111 H   0  0  0  0  0  0
   -1.3682  -16.4243  -19.7300 H   0  0  0  0  0  0
   -2.4540  -15.0499  -17.9894 H   0  0  0  0  0  0
   -1.8672  -14.6641  -23.9858 H   0  0  0  0  0  0
   -2.5714  -14.4332  -26.3405 H   0  0  0  0  0  0
   -4.9690  -14.0791  -26.9038 H   0  0  0  0  0  0
   -6.6628  -13.9662  -25.0848 H   0  0  0  0  0  0
   -5.9732  -14.2103  -22.7270 H   0  0  0  0  0  0
   -2.5320  -11.8262  -20.4754 H   0  0  0  0  0  0
   -1.5060  -10.2860  -18.7440 H   0  0  0  0  0  0
   -2.4792   -9.0040  -19.4276 H   0  0  0  0  0  0
   -1.3224   -9.8860  -20.4436 H   0  0  0  0  0  0
   -4.8384  -11.0628  -21.4189 H   0  0  0  0  0  0
   -4.4540   -9.4866  -20.7756 H   0  0  0  0  0  0
   -3.4441  -10.1834  -22.0223 H   0  0  0  0  0  0
  1  2  2  0  0  0
  1  8  1  0  0  0
  1  4  1  0  0  0
  2  6  1  0  0  0
  2 24  1  0  0  0
  3 25  1  0  0  0
  3  5  1  0  0  0
  3  4  2  0  0  0
  4  7  1  0  0  0
  5 21  1  0  0  0
  5  6  2  0  0  0
  6  9  1  0  0  0
  7 26  1  0  0  0
  9 10  2  0  0  0
  9 14  1  0  0  0
 10 11  1  0  0  0
 10 27  1  0  0  0
 11 12  2  0  0  0
 11 15  1  0  0  0
 12 13  1  0  0  0
 12 28  1  0  0  0
 13 14  2  0  0  0
 13 29  1  0  0  0
 14 30  1  0  0  0
 15 16  2  0  0  0
 15 20  1  0  0  0
 16 17  1  0  0  0
 16 31  1  0  0  0
 17 18  2  0  0  0
 17 32  1  0  0  0
 18 19  1  0  0  0
 18 33  1  0  0  0
 19 20  2  0  0  0
 19 34  1  0  0  0
 20 35  1  0  0  0
 21 22  1  0  0  0
 21 23  1  0  0  0
 21 36  1  0  0  0
 22 37  1  0  0  0
 22 38  1  0  0  0
 22 39  1  0  0  0
 23 40  1  0  0  0
 23 41  1  0  0  0
 23 42  1  0  0  0
M  CHG  2   6   1   8  -1
M  END
> <s_m_entry_id>
414

> <s_m_entry_name>
glide-dock_SP_comt_chembl_pv.413

> <s_m_Source_Path>
/home/csk/Desktop/cluster/DUD-E-result/comt/glide-dock_SP_comt_chembl

> <s_m_Source_File>
glide-dock_SP_comt_chembl_pv.maegz

> <i_m_Source_File_Index>
413

> <chembl_id>
CHEMBL3425737

> <chembl_pref_name>
None

> <i_lp_mmshare_version>
53161

> <i_f3d_flags>
0

> <r_lp_tautomer_probability>
0.995892618013405

> <s_lp_Force_Field>
OPLS_2005

> <r_lp_Energy>
26.206073

> <b_lp_Chiralities_Consistent>
1

> <s_lp_Variant>
CHEMBL2023_lig14-1

> <s_i_glide_gridfile>
glide-grid_3bwm

> <i_i_glide_lignum>
23

> <i_i_glide_rotatable_bonds>
4

> <r_i_docking_score>
-7.08611732925859

> <r_i_glide_ligand_efficiency>
-0.308092057793852

> <r_i_glide_ligand_efficiency_sa>
-0.876172828998711

> <r_i_glide_ligand_efficiency_ln>
-1.71348742357424

> <r_i_glide_gscore>
-7.08611732925859

> <r_i_glide_lipo>
-0.647681465488433

> <r_i_glide_hbond>
-0.0984307559415099

> <r_i_glide_metal>
-2.3

> <r_i_glide_rewards>
-1.62702027272727

> <r_i_glide_evdw>
-17.5046768188477

> <r_i_glide_ecoul>
-12.8905916213989

> <r_i_glide_erotb>
0.395837749050843

> <r_i_glide_esite>
0

> <r_i_glide_emodel>
-59.4960632357936

> <r_i_glide_energy>
-30.3952684402466

> <r_i_glide_einternal>
1.92321634292603

> <i_i_glide_confnum>
7

> <i_i_glide_posenum>
14

> <r_i_glide_eff_state_penalty>
0

> <s_user_duplicate_titles>
CHEMBL2023_lig14

> <s_m_subgroup_title>
glide-dock_SP_comt_chembl_pv

> <s_m_subgroupid>
glide-dock_SP_comt_chembl_pv

> <b_m_subgroup_collapsed>
1

$$$$
CHEMBL2023_lig19
                    3D
 Schrodinger Suite 2021-1.
 37 39  0  0  1  0            999 V2000
   -4.7766  -11.2391  -16.6617 C   0  0  0  0  0  0
   -4.3271  -10.9034  -17.9513 C   0  0  0  0  0  0
   -4.2579  -13.5484  -17.1389 C   0  0  0  0  0  0
   -4.7650  -12.5763  -16.2555 C   0  0  0  0  0  0
   -3.8007  -13.1858  -18.4340 C   0  0  0  0  0  0
   -3.8791  -11.8625  -18.8101 N   0  3  0  0  0  0
   -5.2540  -12.9100  -15.0230 O   0  0  0  0  0  0
   -5.2540  -10.2860  -15.8230 O   0  5  0  0  0  0
   -3.2564  -14.2729  -19.3721 C   0  0  0  0  0  0
   -3.6069  -15.5956  -19.0230 O   0  0  0  0  0  0
   -3.5132  -11.3882  -20.1424 C   0  0  0  0  0  0
   -4.3399  -10.4584  -20.8052 C   0  0  0  0  0  0
   -3.9778   -9.9167  -22.0524 C   0  0  0  0  0  0
   -2.7597  -10.2637  -22.6701 C   0  0  0  0  0  0
   -1.9412  -11.2137  -22.0227 C   0  0  0  0  0  0
   -2.3171  -11.7669  -20.7832 C   0  0  0  0  0  0
   -2.3497   -9.6271  -23.9370 C   0  0  0  0  0  0
   -2.6133   -8.2568  -24.1723 C   0  0  0  0  0  0
   -2.2154   -7.6372  -25.3721 C   0  0  0  0  0  0
   -1.5461   -8.3823  -26.3597 C   0  0  0  0  0  0
   -1.2771   -9.7461  -26.1426 C   0  0  0  0  0  0
   -1.6759  -10.3615  -24.9399 C   0  0  0  0  0  0
   -4.3305   -9.8802  -18.2985 H   0  0  0  0  0  0
   -4.2515  -14.5788  -16.8151 H   0  0  0  0  0  0
   -5.7140  -13.7545  -15.0962 H   0  0  0  0  0  0
   -2.1692  -14.2555  -19.3719 H   0  0  0  0  0  0
   -3.6073  -14.1085  -20.3912 H   0  0  0  0  0  0
   -3.1763  -15.8282  -18.2133 H   0  0  0  0  0  0
   -5.2540  -10.1274  -20.3484 H   0  0  0  0  0  0
   -4.6394   -9.2061  -22.5266 H   0  0  0  0  0  0
   -0.9985  -11.5053  -22.4629 H   0  0  0  0  0  0
   -1.6540  -12.4633  -20.3179 H   0  0  0  0  0  0
   -3.1199   -7.6618  -23.4257 H   0  0  0  0  0  0
   -2.4228   -6.5891  -25.5325 H   0  0  0  0  0  0
   -1.2396   -7.9090  -27.2810 H   0  0  0  0  0  0
   -0.7645  -10.3217  -26.8994 H   0  0  0  0  0  0
   -1.4647  -11.4108  -24.7954 H   0  0  0  0  0  0
  1  2  2  0  0  0
  1  8  1  0  0  0
  1  4  1  0  0  0
  2  6  1  0  0  0
  2 23  1  0  0  0
  3 24  1  0  0  0
  3  5  1  0  0  0
  3  4  2  0  0  0
  4  7  1  0  0  0
  5  9  1  0  0  0
  5  6  2  0  0  0
  6 11  1  0  0  0
  7 25  1  0  0  0
  9 10  1  0  0  0
  9 26  1  0  0  0
  9 27  1  0  0  0
 10 28  1  0  0  0
 11 12  2  0  0  0
 11 16  1  0  0  0
 12 13  1  0  0  0
 12 29  1  0  0  0
 13 14  2  0  0  0
 13 30  1  0  0  0
 14 15  1  0  0  0
 14 17  1  0  0  0
 15 16  2  0  0  0
 15 31  1  0  0  0
 16 32  1  0  0  0
 17 18  2  0  0  0
 17 22  1  0  0  0
 18 19  1  0  0  0
 18 33  1  0  0  0
 19 20  2  0  0  0
 19 34  1  0  0  0
 20 21  1  0  0  0
 20 35  1  0  0  0
 21 22  2  0  0  0
 21 36  1  0  0  0
 22 37  1  0  0  0
M  CHG  2   6   1   8  -1
M  END
> <s_m_entry_id>
423

> <s_m_entry_name>
glide-dock_SP_comt_chembl_pv.422

> <s_m_Source_Path>
/home/csk/Desktop/cluster/DUD-E-result/comt/glide-dock_SP_comt_chembl

> <s_m_Source_File>
glide-dock_SP_comt_chembl_pv.maegz

> <i_m_Source_File_Index>
422

> <chembl_id>
CHEMBL3425732

> <chembl_pref_name>
None

> <i_lp_mmshare_version>
53161

> <i_f3d_flags>
0

> <r_lp_tautomer_probability>
0.995892618013405

> <s_lp_Force_Field>
OPLS_2005

> <r_lp_Energy>
25.429475

> <b_lp_Chiralities_Consistent>
1

> <s_lp_Variant>
CHEMBL2023_lig19-1

> <s_i_glide_gridfile>
glide-grid_3bwm

> <i_i_glide_lignum>
28

> <i_i_glide_rotatable_bonds>
5

> <r_i_docking_score>
-7.07545400536758

> <r_i_glide_ligand_efficiency>
-0.321611545698526

> <r_i_glide_ligand_efficiency_sa>
-0.901168199311627

> <r_i_glide_ligand_efficiency_ln>
-1.7294990423674

> <r_i_glide_gscore>
-7.07545400536758

> <r_i_glide_lipo>
-0.613531333955348

> <r_i_glide_hbond>
-0.260258527175049

> <r_i_glide_metal>
-1.85929609652065

> <r_i_glide_rewards>
-1.409205

> <r_i_glide_evdw>
-15.1272125244141

> <r_i_glide_ecoul>
-18.7593574523926

> <r_i_glide_erotb>
0.637101196363056

> <r_i_glide_esite>
0

> <r_i_glide_emodel>
-66.1703084409864

> <r_i_glide_energy>
-33.8865699768066

> <r_i_glide_einternal>
2.69451642036438

> <i_i_glide_confnum>
36

> <i_i_glide_posenum>
297

> <r_i_glide_eff_state_penalty>
0

> <s_user_duplicate_titles>
CHEMBL2023_lig19,CHEMBL2023_lig19

> <s_m_subgroup_title>
glide-dock_SP_comt_chembl_pv

> <s_m_subgroupid>
glide-dock_SP_comt_chembl_pv

> <b_m_subgroup_collapsed>
1

$$$$
CHEMBL2023_lig9
                    3D
 Schrodinger Suite 2021-1.
 35 37  0  0  1  0            999 V2000
   -4.1487   -9.0862  -18.3133 C   0  0  0  0  0  0
   -4.2620  -10.5175  -17.9840 N   0  0  0  0  0  0
   -4.6585  -10.8659  -16.7260 C   0  0  0  0  0  0
   -4.8541  -10.0538  -15.8230 O   0  0  0  0  0  0
   -4.8500  -12.2864  -16.4912 C   0  0  0  0  0  0
   -4.6280  -13.1541  -17.4944 C   0  0  0  0  0  0
   -4.2251  -12.7335  -18.7592 N   0  0  0  0  0  0
   -4.0522  -11.4731  -19.0193 C   0  0  0  0  0  0
   -3.6803  -11.1022  -20.4131 C   0  0  0  0  0  0
   -2.3733  -10.6858  -20.7263 C   0  0  0  0  0  0
   -2.0609  -10.2920  -22.0411 C   0  0  0  0  0  0
   -3.0604  -10.2901  -23.0333 C   0  0  0  0  0  0
   -4.3761  -10.7119  -22.7364 C   0  0  0  0  0  0
   -4.6575  -11.1513  -21.4247 C   0  0  0  0  0  0
   -5.4455  -10.6637  -23.7512 C   0  0  0  0  0  0
   -5.5591   -9.5585  -24.6255 C   0  0  0  0  0  0
   -6.5999   -9.4877  -25.5713 C   0  0  0  0  0  0
   -7.5430  -10.5277  -25.6587 C   0  0  0  0  0  0
   -7.4418  -11.6361  -24.7982 C   0  0  0  0  0  0
   -6.4007  -11.7014  -23.8524 C   0  0  0  0  0  0
   -5.2546  -12.6860  -15.2779 O   0  0  0  0  0  0
   -3.4354   -8.8663  -19.1052 H   0  0  0  0  0  0
   -5.1227   -8.7064  -18.6228 H   0  0  0  0  0  0
   -3.8269   -8.4854  -17.4611 H   0  0  0  0  0  0
   -4.7679  -14.2196  -17.3708 H   0  0  0  0  0  0
   -1.6184  -10.6586  -19.9582 H   0  0  0  0  0  0
   -1.0581   -9.9729  -22.2868 H   0  0  0  0  0  0
   -2.8101   -9.9622  -24.0318 H   0  0  0  0  0  0
   -5.6538  -11.4855  -21.1755 H   0  0  0  0  0  0
   -4.8537   -8.7426  -24.5618 H   0  0  0  0  0  0
   -6.6770   -8.6327  -26.2265 H   0  0  0  0  0  0
   -8.3429  -10.4740  -26.3822 H   0  0  0  0  0  0
   -8.1642  -12.4355  -24.8624 H   0  0  0  0  0  0
   -6.3393  -12.5587  -23.1985 H   0  0  0  0  0  0
   -5.5574  -13.5921  -15.3784 H   0  0  0  0  0  0
  1  2  1  0  0  0
  1 22  1  0  0  0
  1 23  1  0  0  0
  1 24  1  0  0  0
  2  3  1  0  0  0
  2  8  1  0  0  0
  3  4  2  0  0  0
  3  5  1  0  0  0
  5  6  2  0  0  0
  5 21  1  0  0  0
  6  7  1  0  0  0
  6 25  1  0  0  0
  7  8  2  0  0  0
  8  9  1  0  0  0
  9 10  2  0  0  0
  9 14  1  0  0  0
 10 11  1  0  0  0
 10 26  1  0  0  0
 11 12  2  0  0  0
 11 27  1  0  0  0
 12 13  1  0  0  0
 12 28  1  0  0  0
 13 14  2  0  0  0
 13 15  1  0  0  0
 14 29  1  0  0  0
 15 16  2  0  0  0
 15 20  1  0  0  0
 16 17  1  0  0  0
 16 30  1  0  0  0
 17 18  2  0  0  0
 17 31  1  0  0  0
 18 19  1  0  0  0
 18 32  1  0  0  0
 19 20  2  0  0  0
 19 33  1  0  0  0
 20 34  1  0  0  0
 21 35  1  0  0  0
M  END
> <s_m_entry_id>
444

> <s_m_entry_name>
glide-dock_SP_comt_chembl_pv.443

> <s_m_Source_Path>
/home/csk/Desktop/cluster/DUD-E-result/comt/glide-dock_SP_comt_chembl

> <s_m_Source_File>
glide-dock_SP_comt_chembl_pv.maegz

> <i_m_Source_File_Index>
443

> <chembl_id>
CHEMBL3425743

> <chembl_pref_name>
None

> <i_lp_mmshare_version>
53161

> <i_f3d_flags>
0

> <r_lp_tautomer_probability>
0.811047773262651

> <s_lp_Force_Field>
OPLS_2005

> <r_lp_Energy>
31.390779

> <b_lp_Chiralities_Consistent>
1

> <s_lp_Variant>
CHEMBL2023_lig9-1

> <s_i_glide_gridfile>
glide-grid_3bwm

> <i_i_glide_lignum>
13

> <i_i_glide_rotatable_bonds>
3

> <r_i_docking_score>
-7.03110839101395

> <r_i_glide_ligand_efficiency>
-0.334814685286379

> <r_i_glide_ligand_efficiency_sa>
-0.923728328906589

> <r_i_glide_ligand_efficiency_ln>
-1.73842734198592

> <r_i_glide_gscore>
-7.03110839101395

> <r_i_glide_lipo>
-0.410980220983589

> <r_i_glide_hbond>
-0.0618044693912566

> <r_i_glide_metal>
-2.3

> <r_i_glide_rewards>
-1.55322171212121

> <r_i_glide_evdw>
-25.6868267059326

> <r_i_glide_ecoul>
-12.2855577468872

> <r_i_glide_erotb>
0.465406329732165

> <r_i_glide_esite>
-0.0433333209203482

> <r_i_glide_emodel>
-59.2542583265621

> <r_i_glide_energy>
-37.9723844528198

> <r_i_glide_einternal>
1.27263712882996

> <i_i_glide_confnum>
14

> <i_i_glide_posenum>
94

> <r_i_glide_eff_state_penalty>
0

> <s_user_duplicate_titles>
CHEMBL2023_lig9,CHEMBL2023_lig9,CHEMBL2023_lig9,CHEMBL2023_lig9,CHEMBL2023_lig9,CHEMBL2023_lig9

> <s_m_subgroup_title>
glide-dock_SP_comt_chembl_pv

> <s_m_subgroupid>
glide-dock_SP_comt_chembl_pv

> <b_m_subgroup_collapsed>
1

$$$$
CHEMBL2023_lig44
                    3D
 Schrodinger Suite 2021-1.
 40 42  0  0  1  0            999 V2000
   -3.5846  -11.5583  -20.2011 C   0  0  0  0  0  0
   -3.9152  -11.8566  -18.8408 N   0  3  0  0  0  0
   -4.0360  -13.1570  -18.4787 C   0  0  0  0  0  0
   -4.4541  -13.4861  -17.1740 C   0  0  0  0  0  0
   -4.7623  -12.4473  -16.2730 C   0  0  0  0  0  0
   -4.5762  -11.1173  -16.6830 C   0  0  0  0  0  0
   -4.1382  -10.8314  -17.9902 C   0  0  0  0  0  0
   -5.2541  -12.7053  -15.0234 O   0  0  0  0  0  0
   -4.8540  -10.1156  -15.8239 O   0  5  0  0  0  0
   -2.4545  -10.8850  -20.5160 N   0  0  0  0  0  0
   -2.1834  -10.6827  -21.8238 C   0  0  0  0  0  0
   -3.0350  -11.0933  -22.8661 C   0  0  0  0  0  0
   -4.2392  -11.7429  -22.5348 C   0  0  0  0  0  0
   -4.5013  -12.0003  -21.1761 C   0  0  0  0  0  0
   -5.2113  -12.1318  -23.5553 C   0  0  0  0  0  0
   -4.9978  -12.5646  -24.8406 C   0  0  0  0  0  0
   -6.4886  -12.8985  -25.6818 S   0  0  0  0  0  0
   -7.3836  -12.4187  -24.2395 C   0  0  0  0  0  0
   -6.5718  -12.0520  -23.2472 N   0  0  0  0  0  0
   -8.8836  -12.2997  -24.1372 C   0  0  0  0  0  0
   -9.3726  -12.8772  -22.7901 C   0  0  0  0  0  0
   -9.5776  -13.0798  -25.2725 C   0  0  0  0  0  0
   -9.2838  -10.8199  -24.2518 C   0  0  0  0  0  0
   -3.8143  -13.8967  -19.2348 H   0  0  0  0  0  0
   -4.5659  -14.5213  -16.8864 H   0  0  0  0  0  0
   -4.0150   -9.8304  -18.3806 H   0  0  0  0  0  0
   -5.6755  -13.5702  -15.0375 H   0  0  0  0  0  0
   -1.2655  -10.1585  -22.0456 H   0  0  0  0  0  0
   -2.7812  -10.8820  -23.8942 H   0  0  0  0  0  0
   -5.4139  -12.5028  -20.8880 H   0  0  0  0  0  0
   -4.0534  -12.7092  -25.3430 H   0  0  0  0  0  0
  -10.4543  -12.7850  -22.6843 H   0  0  0  0  0  0
   -8.9359  -12.3382  -21.9483 H   0  0  0  0  0  0
   -9.0968  -13.9253  -22.6756 H   0  0  0  0  0  0
   -9.3179  -12.6754  -26.2517 H   0  0  0  0  0  0
   -9.2913  -14.1319  -25.2674 H   0  0  0  0  0  0
  -10.6628  -13.0207  -25.1912 H   0  0  0  0  0  0
   -8.9921  -10.4027  -25.2164 H   0  0  0  0  0  0
  -10.3609  -10.6835  -24.1438 H   0  0  0  0  0  0
   -8.7933  -10.2263  -23.4813 H   0  0  0  0  0  0
  1 10  2  0  0  0
  1 14  1  0  0  0
  1  2  1  0  0  0
  2  3  2  0  0  0
  2  7  1  0  0  0
  3  4  1  0  0  0
  3 24  1  0  0  0
  4 25  1  0  0  0
  4  5  2  0  0  0
  5  6  1  0  0  0
  5  8  1  0  0  0
  6  7  2  0  0  0
  6  9  1  0  0  0
  7 26  1  0  0  0
  8 27  1  0  0  0
 10 11  1  0  0  0
 11 12  2  0  0  0
 11 28  1  0  0  0
 12 13  1  0  0  0
 12 29  1  0  0  0
 13 14  2  0  0  0
 13 15  1  0  0  0
 14 30  1  0  0  0
 15 16  2  0  0  0
 15 19  1  0  0  0
 16 17  1  0  0  0
 16 31  1  0  0  0
 17 18  1  0  0  0
 18 19  2  0  0  0
 18 20  1  0  0  0
 20 21  1  0  0  0
 20 22  1  0  0  0
 20 23  1  0  0  0
 21 32  1  0  0  0
 21 33  1  0  0  0
 21 34  1  0  0  0
 22 35  1  0  0  0
 22 36  1  0  0  0
 22 37  1  0  0  0
 23 38  1  0  0  0
 23 39  1  0  0  0
 23 40  1  0  0  0
M  CHG  2   2   1   9  -1
M  END
> <s_m_entry_id>
457

> <s_m_entry_name>
glide-dock_SP_comt_chembl_pv.456

> <s_m_Source_Path>
/home/csk/Desktop/cluster/DUD-E-result/comt/glide-dock_SP_comt_chembl

> <s_m_Source_File>
glide-dock_SP_comt_chembl_pv.maegz

> <i_m_Source_File_Index>
456

> <chembl_id>
CHEMBL3798212

> <chembl_pref_name>
None

> <i_lp_mmshare_version>
53161

> <i_f3d_flags>
0

> <r_lp_tautomer_probability>
0.995892618013405

> <s_lp_Force_Field>
OPLS_2005

> <r_lp_Energy>
5.938484

> <b_lp_Chiralities_Consistent>
1

> <s_lp_Variant>
CHEMBL2023_lig44-1

> <s_i_glide_gridfile>
glide-grid_3bwm

> <i_i_glide_lignum>
56

> <i_i_glide_rotatable_bonds>
4

> <r_i_docking_score>
-7.00610755836496

> <r_i_glide_ligand_efficiency>
-0.304613372102824

> <r_i_glide_ligand_efficiency_sa>
-0.866279909639055

> <r_i_glide_ligand_efficiency_ln>
-1.69414033548366

> <r_i_glide_gscore>
-7.00610755836496

> <r_i_glide_lipo>
-0.296787382831298

> <r_i_glide_hbond>
-0.0678515046119412

> <r_i_glide_metal>
-2.3

> <r_i_glide_rewards>
-1.17680604545454

> <r_i_glide_evdw>
-22.5300312042236

> <r_i_glide_ecoul>
-15.9222059249878

> <r_i_glide_erotb>
0.35016982349217

> <r_i_glide_esite>
0

> <r_i_glide_emodel>
-69.3541498777488

> <r_i_glide_energy>
-38.4522371292114

> <r_i_glide_einternal>
5.08907747268677

> <i_i_glide_confnum>
4

> <i_i_glide_posenum>
217

> <r_i_glide_eff_state_penalty>
0

> <s_user_duplicate_titles>
CHEMBL2023_lig44

> <s_m_subgroup_title>
glide-dock_SP_comt_chembl_pv

> <s_m_subgroupid>
glide-dock_SP_comt_chembl_pv

> <b_m_subgroup_collapsed>
1

$$$$
CHEMBL2023_lig37
                    3D
 Schrodinger Suite 2021-1.
 32 34  0  0  1  0            999 V2000
   -3.9989  -11.6560  -20.2413 C   0  0  0  0  0  0
   -4.1608  -11.9505  -18.8395 N   0  3  0  0  0  0
   -4.0540  -13.2422  -18.4339 C   0  0  0  0  0  0
   -4.3917  -13.5960  -17.1122 C   0  0  0  0  0  0
   -4.8233  -12.5937  -16.2230 C   0  0  0  0  0  0
   -4.8444  -11.2615  -16.6615 C   0  0  0  0  0  0
   -4.5068  -10.9515  -17.9915 C   0  0  0  0  0  0
   -5.2540  -12.8986  -14.9639 O   0  0  0  0  0  0
   -5.2540  -10.2860  -15.8230 O   0  5  0  0  0  0
   -3.3407  -10.4653  -20.6299 C   0  0  0  0  0  0
   -3.2543  -10.1625  -22.0008 C   0  0  0  0  0  0
   -3.8251  -11.0489  -22.9309 C   0  0  0  0  0  0
   -4.4564  -12.2210  -22.4642 C   0  0  0  0  0  0
   -4.5213  -12.5139  -21.1473 N   0  0  0  0  0  0
   -5.1088  -13.1929  -23.3664 C   0  0  0  0  0  0
   -5.7700  -12.7629  -24.5402 C   0  0  0  0  0  0
   -6.3996  -13.6859  -25.3984 C   0  0  0  0  0  0
   -6.3754  -15.0597  -25.0959 C   0  0  0  0  0  0
   -5.7195  -15.5063  -23.9347 C   0  0  0  0  0  0
   -5.0920  -14.5793  -23.0808 C   0  0  0  0  0  0
   -3.7607  -13.9699  -19.1765 H   0  0  0  0  0  0
   -4.3701  -14.6311  -16.8011 H   0  0  0  0  0  0
   -4.5957   -9.9536  -18.3958 H   0  0  0  0  0  0
   -5.6817  -13.7614  -14.9835 H   0  0  0  0  0  0
   -2.9179   -9.7877  -19.9036 H   0  0  0  0  0  0
   -2.7673   -9.2581  -22.3349 H   0  0  0  0  0  0
   -3.7738  -10.8285  -23.9871 H   0  0  0  0  0  0
   -5.8084  -11.7118  -24.7867 H   0  0  0  0  0  0
   -6.9002  -13.3379  -26.2901 H   0  0  0  0  0  0
   -6.8540  -15.7690  -25.7552 H   0  0  0  0  0  0
   -5.6918  -16.5602  -23.6976 H   0  0  0  0  0  0
   -4.5903  -14.9439  -22.1969 H   0  0  0  0  0  0
  1 10  2  0  0  0
  1 14  1  0  0  0
  1  2  1  0  0  0
  2  3  2  0  0  0
  2  7  1  0  0  0
  3  4  1  0  0  0
  3 21  1  0  0  0
  4 22  1  0  0  0
  4  5  2  0  0  0
  5  6  1  0  0  0
  5  8  1  0  0  0
  6  7  2  0  0  0
  6  9  1  0  0  0
  7 23  1  0  0  0
  8 24  1  0  0  0
 10 11  1  0  0  0
 10 25  1  0  0  0
 11 12  2  0  0  0
 11 26  1  0  0  0
 12 13  1  0  0  0
 12 27  1  0  0  0
 13 14  2  0  0  0
 13 15  1  0  0  0
 15 16  2  0  0  0
 15 20  1  0  0  0
 16 17  1  0  0  0
 16 28  1  0  0  0
 17 18  2  0  0  0
 17 29  1  0  0  0
 18 19  1  0  0  0
 18 30  1  0  0  0
 19 20  2  0  0  0
 19 31  1  0  0  0
 20 32  1  0  0  0
M  CHG  2   2   1   9  -1
M  END
> <s_m_entry_id>
462

> <s_m_entry_name>
glide-dock_SP_comt_chembl_pv.461

> <s_m_Source_Path>
/home/csk/Desktop/cluster/DUD-E-result/comt/glide-dock_SP_comt_chembl

> <s_m_Source_File>
glide-dock_SP_comt_chembl_pv.maegz

> <i_m_Source_File_Index>
461

> <chembl_id>
CHEMBL3797723

> <chembl_pref_name>
None

> <i_lp_mmshare_version>
53161

> <i_f3d_flags>
0

> <r_lp_tautomer_probability>
0.995892618013405

> <s_lp_Force_Field>
OPLS_2005

> <r_lp_Energy>
18.528924

> <b_lp_Chiralities_Consistent>
1

> <s_lp_Variant>
CHEMBL2023_lig37-1

> <s_i_glide_gridfile>
glide-grid_3bwm

> <i_i_glide_lignum>
49

> <i_i_glide_rotatable_bonds>
3

> <r_i_docking_score>
-6.99385948275328

> <r_i_glide_ligand_efficiency>
-0.349692974137664

> <r_i_glide_ligand_efficiency_sa>
-0.949212768450879

> <r_i_glide_ligand_efficiency_ln>
-1.75033235560915

> <r_i_glide_gscore>
-6.99385948275328

> <r_i_glide_lipo>
-0.269090196955919

> <r_i_glide_hbond>
0

> <r_i_glide_metal>
-2.0825618096164

> <r_i_glide_rewards>
-1.90719081818182

> <r_i_glide_evdw>
-17.077600479126

> <r_i_glide_ecoul>
-15.9341068267822

> <r_i_glide_erotb>
0.508979389974489

> <r_i_glide_esite>
0

> <r_i_glide_emodel>
-65.3868404315856

> <r_i_glide_energy>
-33.0117073059082

> <r_i_glide_einternal>
1.14014363288879

> <i_i_glide_confnum>
4

> <i_i_glide_posenum>
390

> <r_i_glide_eff_state_penalty>
0

> <s_user_duplicate_titles>
CHEMBL2023_lig37,CHEMBL2023_lig37,CHEMBL2023_lig37

> <s_m_subgroup_title>
glide-dock_SP_comt_chembl_pv

> <s_m_subgroupid>
glide-dock_SP_comt_chembl_pv

> <b_m_subgroup_collapsed>
1

$$$$
CHEMBL2023_lig60
                    3D
 Schrodinger Suite 2021-1.
 36 38  0  0  1  0            999 V2000
   -2.3175   -9.8877  -21.6933 O   0  0  0  0  0  0
   -2.8260  -11.1846  -21.2231 S   0  0  0  0  0  0
   -1.9394  -12.3559  -21.2535 O   0  0  0  0  0  0
   -4.3760   -9.2921  -17.9753 C   0  0  0  0  0  0
   -3.8077   -9.6087  -19.2164 C   0  0  0  0  0  0
   -3.5057  -10.9393  -19.5591 C   0  0  0  0  0  0
   -4.6308  -10.3082  -17.0309 C   0  0  0  0  0  0
   -4.2613  -11.6421  -17.3200 C   0  0  0  0  0  0
   -3.7216  -11.9702  -18.6027 C   0  0  0  0  0  0
   -3.4362  -13.3321  -18.8600 C   0  0  0  0  0  0
   -3.6537  -14.2863  -17.8576 C   0  0  0  0  0  0
   -4.1454  -13.8509  -16.6220 C   0  0  0  0  0  0
   -4.4539  -12.5677  -16.3537 N   0  0  0  0  0  0
   -5.2574  -10.0325  -15.8324 O   0  0  0  0  0  0
   -6.4556   -9.2659  -15.9835 C   0  0  0  0  0  0
   -4.2137  -11.5455  -22.1907 N   0  0  0  0  0  0
   -5.1063  -10.4894  -22.6679 C   0  0  0  0  0  0
   -6.2744  -11.2345  -23.3140 C   0  0  0  0  0  0
   -6.3473  -12.5421  -22.5299 C   0  0  0  0  0  0
   -4.8897  -12.8455  -22.1713 C   0  0  0  0  0  0
   -4.6112   -8.2586  -17.7650 H   0  0  0  0  0  0
   -3.6367   -8.8140  -19.9257 H   0  0  0  0  0  0
   -3.0604  -13.6942  -19.7992 H   0  0  0  0  0  0
   -3.4490  -15.3328  -18.0290 H   0  0  0  0  0  0
   -4.3376  -14.5607  -15.8310 H   0  0  0  0  0  0
   -6.9308   -9.0867  -15.0225 H   0  0  0  0  0  0
   -6.2898   -8.2876  -16.4313 H   0  0  0  0  0  0
   -7.1758   -9.8025  -16.6034 H   0  0  0  0  0  0
   -5.4354   -9.8874  -21.8227 H   0  0  0  0  0  0
   -4.5914   -9.8334  -23.3702 H   0  0  0  0  0  0
   -7.2059  -10.6687  -23.2846 H   0  0  0  0  0  0
   -6.0423  -11.4442  -24.3590 H   0  0  0  0  0  0
   -6.8187  -13.3462  -23.0948 H   0  0  0  0  0  0
   -6.9247  -12.3928  -21.6170 H   0  0  0  0  0  0
   -4.4228  -13.4997  -22.9087 H   0  0  0  0  0  0
   -4.8194  -13.3202  -21.1959 H   0  0  0  0  0  0
  1  2  2  0  0  0
  2  3  2  0  0  0
  2  6  1  0  0  0
  2 16  1  0  0  0
  4  5  2  0  0  0
  4  7  1  0  0  0
  4 21  1  0  0  0
  5  6  1  0  0  0
  5 22  1  0  0  0
  6  9  2  0  0  0
  7  8  2  0  0  0
  7 14  1  0  0  0
  8  9  1  0  0  0
  8 13  1  0  0  0
  9 10  1  0  0  0
 10 11  2  0  0  0
 10 23  1  0  0  0
 11 12  1  0  0  0
 11 24  1  0  0  0
 12 13  2  0  0  0
 12 25  1  0  0  0
 14 15  1  0  0  0
 15 26  1  0  0  0
 15 27  1  0  0  0
 15 28  1  0  0  0
 16 17  1  0  0  0
 16 20  1  0  0  0
 17 18  1  0  0  0
 17 29  1  0  0  0
 17 30  1  0  0  0
 18 19  1  0  0  0
 18 31  1  0  0  0
 18 32  1  0  0  0
 19 20  1  0  0  0
 19 33  1  0  0  0
 19 34  1  0  0  0
 20 35  1  0  0  0
 20 36  1  0  0  0
M  END
> <s_m_entry_id>
468

> <s_m_entry_name>
glide-dock_SP_comt_chembl_pv.467

> <s_m_Source_Path>
/home/csk/Desktop/cluster/DUD-E-result/comt/glide-dock_SP_comt_chembl

> <s_m_Source_File>
glide-dock_SP_comt_chembl_pv.maegz

> <i_m_Source_File_Index>
467

> <chembl_id>
CHEMBL4162599

> <chembl_pref_name>
None

> <i_lp_mmshare_version>
53161

> <i_f3d_flags>
0

> <r_lp_tautomer_probability>
1

> <s_lp_Force_Field>
OPLS_2005

> <r_lp_Energy>
21.677372

> <b_lp_Chiralities_Consistent>
1

> <s_lp_Variant>
CHEMBL2023_lig60-1

> <s_i_glide_gridfile>
glide-grid_3bwm

> <i_i_glide_lignum>
81

> <i_i_glide_rotatable_bonds>
3

> <r_i_docking_score>
-6.9803223895458

> <r_i_glide_ligand_efficiency>
-0.34901611947729

> <r_i_glide_ligand_efficiency_sa>
-0.94737550223872

> <r_i_glide_ligand_efficiency_ln>
-1.74694446766254

> <r_i_glide_gscore>
-6.9803223895458

> <r_i_glide_lipo>
-0.876168912387171

> <r_i_glide_hbond>
0

> <r_i_glide_metal>
-2.3

> <r_i_glide_rewards>
-1.45018473948374

> <r_i_glide_evdw>
-26.548921585083

> <r_i_glide_ecoul>
-9.50674343109131

> <r_i_glide_erotb>
0.42717695391256

> <r_i_glide_esite>
-0.027688097669599

> <r_i_glide_emodel>
-52.5514430471271

> <r_i_glide_energy>
-36.0556650161743

> <r_i_glide_einternal>
2.38995790481567

> <i_i_glide_confnum>
24

> <i_i_glide_posenum>
110

> <r_i_glide_eff_state_penalty>
0

> <s_user_duplicate_titles>
CHEMBL2023_lig60

> <s_m_subgroup_title>
glide-dock_SP_comt_chembl_pv

> <s_m_subgroupid>
glide-dock_SP_comt_chembl_pv

> <b_m_subgroup_collapsed>
1

$$$$
CHEMBL2023_lig49
                    3D
 Schrodinger Suite 2021-1.
 40 42  0  0  1  0            999 V2000
  -10.9581  -11.2871  -25.1725 C   0  0  0  0  0  0
   -9.9264  -12.1163  -24.6498 O   0  0  0  0  0  0
   -8.7096  -11.5281  -24.3739 C   0  0  0  0  0  0
   -7.7031  -12.3578  -23.8406 C   0  0  0  0  0  0
   -6.4337  -11.8394  -23.5208 C   0  0  0  0  0  0
   -6.1470  -10.4664  -23.7175 C   0  0  0  0  0  0
   -4.9337   -9.8929  -23.4009 O   0  0  0  0  0  0
   -4.0751  -10.5565  -22.5616 C   0  0  0  0  0  0
   -2.9050  -11.1348  -23.0884 C   0  0  0  0  0  0
   -2.0551  -11.8813  -22.2531 C   0  0  0  0  0  0
   -2.3793  -12.0563  -20.8942 C   0  0  0  0  0  0
   -3.5314  -11.4542  -20.3448 C   0  0  0  0  0  0
   -4.3645  -10.6892  -21.1869 C   0  0  0  0  0  0
   -3.9147  -11.7154  -18.9169 C   0  0  0  0  0  0
   -4.0111  -12.9606  -18.5559 N   0  0  0  0  0  0
   -4.4580  -13.3101  -17.2848 C   0  0  0  0  0  0
   -4.7822  -12.3853  -16.3643 C   0  0  0  0  0  0
   -5.2586  -12.7161  -15.1555 O   0  0  0  0  0  0
   -4.6166  -10.9774  -16.6803 C   0  0  0  0  0  0
   -4.8540  -10.1228  -15.8235 O   0  0  0  0  0  0
   -4.1745  -10.7015  -17.9455 N   0  0  0  0  0  0
   -3.9690   -9.2978  -18.3337 C   0  0  0  0  0  0
   -7.1448   -9.6410  -24.2709 C   0  0  0  0  0  0
   -8.4148  -10.1598  -24.5944 C   0  0  0  0  0  0
  -11.8465  -11.8858  -25.3742 H   0  0  0  0  0  0
  -11.2433  -10.5072  -24.4638 H   0  0  0  0  0  0
  -10.6621  -10.8258  -26.1159 H   0  0  0  0  0  0
   -7.9036  -13.4040  -23.6706 H   0  0  0  0  0  0
   -5.6921  -12.5090  -23.1124 H   0  0  0  0  0  0
   -2.6741  -11.0257  -24.1380 H   0  0  0  0  0  0
   -1.1661  -12.3403  -22.6601 H   0  0  0  0  0  0
   -1.7327  -12.6619  -20.2801 H   0  0  0  0  0  0
   -5.2540  -10.2338  -20.7903 H   0  0  0  0  0  0
   -4.5658  -14.3687  -17.0925 H   0  0  0  0  0  0
   -5.5594  -13.6256  -15.2243 H   0  0  0  0  0  0
   -4.8993   -8.8886  -18.7253 H   0  0  0  0  0  0
   -3.6735   -8.6684  -17.4932 H   0  0  0  0  0  0
   -3.1902   -9.1713  -19.0862 H   0  0  0  0  0  0
   -6.9410   -8.5928  -24.4406 H   0  0  0  0  0  0
   -9.1482   -9.4806  -25.0004 H   0  0  0  0  0  0
  1  2  1  0  0  0
  1 25  1  0  0  0
  1 26  1  0  0  0
  1 27  1  0  0  0
  2  3  1  0  0  0
  3  4  2  0  0  0
  3 24  1  0  0  0
  4  5  1  0  0  0
  4 28  1  0  0  0
  5  6  2  0  0  0
  5 29  1  0  0  0
  6  7  1  0  0  0
  6 23  1  0  0  0
  7  8  1  0  0  0
  8  9  2  0  0  0
  8 13  1  0  0  0
  9 10  1  0  0  0
  9 30  1  0  0  0
 10 11  2  0  0  0
 10 31  1  0  0  0
 11 12  1  0  0  0
 11 32  1  0  0  0
 12 13  2  0  0  0
 12 14  1  0  0  0
 13 33  1  0  0  0
 14 15  2  0  0  0
 14 21  1  0  0  0
 15 16  1  0  0  0
 16 17  2  0  0  0
 16 34  1  0  0  0
 17 18  1  0  0  0
 17 19  1  0  0  0
 18 35  1  0  0  0
 19 20  2  0  0  0
 19 21  1  0  0  0
 21 22  1  0  0  0
 22 36  1  0  0  0
 22 37  1  0  0  0
 22 38  1  0  0  0
 23 24  2  0  0  0
 23 39  1  0  0  0
 24 40  1  0  0  0
M  END
> <s_m_entry_id>
471

> <s_m_entry_name>
glide-dock_SP_comt_chembl_pv.470

> <s_m_Source_Path>
/home/csk/Desktop/cluster/DUD-E-result/comt/glide-dock_SP_comt_chembl

> <s_m_Source_File>
glide-dock_SP_comt_chembl_pv.maegz

> <i_m_Source_File_Index>
470

> <chembl_id>
CHEMBL3980370

> <chembl_pref_name>
None

> <i_lp_mmshare_version>
53161

> <i_f3d_flags>
0

> <r_lp_tautomer_probability>
0.811047773262651

> <s_lp_Force_Field>
OPLS_2005

> <r_lp_Energy>
33.496552

> <b_lp_Chiralities_Consistent>
1

> <s_lp_Variant>
CHEMBL2023_lig49-1

> <s_i_glide_gridfile>
glide-grid_3bwm

> <i_i_glide_lignum>
62

> <i_i_glide_rotatable_bonds>
5

> <r_i_docking_score>
-6.97356930448732

> <r_i_glide_ligand_efficiency>
-0.290565387686972

> <r_i_glide_ligand_efficiency_sa>
-0.838135610187601

> <r_i_glide_ligand_efficiency_ln>
-1.66909513080796

> <r_i_glide_gscore>
-6.97356930448732

> <r_i_glide_lipo>
-0.441500903705248

> <r_i_glide_hbond>
-0.0517445602499788

> <r_i_glide_metal>
-2.3

> <r_i_glide_rewards>
-1.19774551648627

> <r_i_glide_evdw>
-27.8110198974609

> <r_i_glide_ecoul>
-13.885799407959

> <r_i_glide_erotb>
0.534066045623691

> <r_i_glide_esite>
-0.0432234636026184

> <r_i_glide_emodel>
-64.7756144891164

> <r_i_glide_energy>
-41.6968193054199

> <r_i_glide_einternal>
2.65654706954956

> <i_i_glide_confnum>
11

> <i_i_glide_posenum>
273

> <r_i_glide_eff_state_penalty>
0

> <s_user_duplicate_titles>
CHEMBL2023_lig49,CHEMBL2023_lig49,CHEMBL2023_lig49

> <s_m_subgroup_title>
glide-dock_SP_comt_chembl_pv

> <s_m_subgroupid>
glide-dock_SP_comt_chembl_pv

> <b_m_subgroup_collapsed>
1

$$$$
CHEMBL2023_lig48
                    3D
 Schrodinger Suite 2021-1.
 28 29  0  0  1  0            999 V2000
   -4.6787   -9.4509  -18.4302 C   0  0  0  0  0  0
   -4.5852  -10.8485  -17.9824 N   0  0  0  0  0  0
   -4.8540  -11.1304  -16.6705 C   0  0  0  0  0  0
   -5.1150  -10.2794  -15.8230 O   0  0  0  0  0  0
   -4.8377  -12.5324  -16.3001 C   0  0  0  0  0  0
   -4.4540  -13.4414  -17.2135 C   0  0  0  0  0  0
   -4.1792  -13.0860  -18.5310 N   0  0  0  0  0  0
   -4.3438  -11.8680  -18.9554 C   0  0  0  0  0  0
   -4.4173  -11.7053  -20.4549 C   0  0  0  0  0  0
   -5.2540  -12.6073  -21.1526 C   0  0  0  0  0  0
   -5.3989  -12.5319  -22.5461 C   0  0  0  0  0  0
   -4.7102  -11.5498  -23.2753 C   0  0  0  0  0  0
   -4.9271  -11.5090  -24.9898 Cl  0  0  0  0  0  0
   -3.8566  -10.6380  -22.6075 C   0  0  0  0  0  0
   -3.6972  -10.7380  -21.1994 C   0  0  0  0  0  0
   -3.1112   -9.5720  -23.4083 C   0  0  0  0  0  0
   -2.4540   -8.7243  -22.6230 F   0  0  0  0  0  0
   -3.9634   -8.8546  -24.1402 F   0  0  0  0  0  0
   -2.2261  -10.1554  -24.2158 F   0  0  0  0  0  0
   -5.2540  -12.8715  -15.0682 O   0  0  0  0  0  0
   -4.7429   -8.7255  -17.6178 H   0  0  0  0  0  0
   -3.8104   -9.1419  -19.0053 H   0  0  0  0  0  0
   -5.5799   -9.3133  -19.0230 H   0  0  0  0  0  0
   -4.4405  -14.5005  -16.9947 H   0  0  0  0  0  0
   -5.8105  -13.3653  -20.6230 H   0  0  0  0  0  0
   -6.0467  -13.2283  -23.0578 H   0  0  0  0  0  0
   -3.0108  -10.0731  -20.7028 H   0  0  0  0  0  0
   -5.5417  -13.7861  -15.1258 H   0  0  0  0  0  0
  1  2  1  0  0  0
  1 21  1  0  0  0
  1 22  1  0  0  0
  1 23  1  0  0  0
  2  3  1  0  0  0
  2  8  1  0  0  0
  3  4  2  0  0  0
  3  5  1  0  0  0
  5  6  2  0  0  0
  5 20  1  0  0  0
  6  7  1  0  0  0
  6 24  1  0  0  0
  7  8  2  0  0  0
  8  9  1  0  0  0
  9 10  2  0  0  0
  9 15  1  0  0  0
 10 11  1  0  0  0
 10 25  1  0  0  0
 11 12  2  0  0  0
 11 26  1  0  0  0
 12 13  1  0  0  0
 12 14  1  0  0  0
 14 15  2  0  0  0
 14 16  1  0  0  0
 15 27  1  0  0  0
 16 17  1  0  0  0
 16 18  1  0  0  0
 16 19  1  0  0  0
 20 28  1  0  0  0
M  END
> <s_m_entry_id>
481

> <s_m_entry_name>
glide-dock_SP_comt_chembl_pv.480

> <s_m_Source_Path>
/home/csk/Desktop/cluster/DUD-E-result/comt/glide-dock_SP_comt_chembl

> <s_m_Source_File>
glide-dock_SP_comt_chembl_pv.maegz

> <i_m_Source_File_Index>
480

> <chembl_id>
CHEMBL3954860

> <chembl_pref_name>
None

> <i_lp_mmshare_version>
53161

> <i_f3d_flags>
0

> <r_lp_tautomer_probability>
0.811047773262651

> <s_lp_Force_Field>
OPLS_2005

> <r_lp_Energy>
23.873983

> <b_lp_Chiralities_Consistent>
1

> <s_lp_Variant>
CHEMBL2023_lig48-1

> <s_i_glide_gridfile>
glide-grid_3bwm

> <i_i_glide_lignum>
60

> <i_i_glide_rotatable_bonds>
3

> <r_i_docking_score>
-6.96055707437701

> <r_i_glide_ligand_efficiency>
-0.348027853718851

> <r_i_glide_ligand_efficiency_sa>
-0.944692936256815

> <r_i_glide_ligand_efficiency_ln>
-1.74199786117952

> <r_i_glide_gscore>
-6.96055707437701

> <r_i_glide_lipo>
-0.310701375192905

> <r_i_glide_hbond>
0

> <r_i_glide_metal>
-2.3

> <r_i_glide_rewards>
-1.33191798409091

> <r_i_glide_evdw>
-21.7987728118896

> <r_i_glide_ecoul>
-13.7498273849487

> <r_i_glide_erotb>
0.198737712674497

> <r_i_glide_esite>
-0.0642626794309065

> <r_i_glide_emodel>
-55.1481931875101

> <r_i_glide_energy>
-35.5486001968384

> <r_i_glide_einternal>
3.23070287704468

> <i_i_glide_confnum>
2

> <i_i_glide_posenum>
87

> <r_i_glide_eff_state_penalty>
0

> <s_user_duplicate_titles>
CHEMBL2023_lig48,CHEMBL2023_lig48,CHEMBL2023_lig48

> <s_m_subgroup_title>
glide-dock_SP_comt_chembl_pv

> <s_m_subgroupid>
glide-dock_SP_comt_chembl_pv

> <b_m_subgroup_collapsed>
1

$$$$
CHEMBL2023_lig70
                    3D
 Schrodinger Suite 2021-1.
 37 39  0  0  1  0            999 V2000
   -2.4941   -9.7322  -21.5592 O   0  0  0  0  0  0
   -2.9246  -11.1049  -21.2535 S   0  0  0  0  0  0
   -1.9444  -12.1923  -21.3879 O   0  0  0  0  0  0
   -4.7588   -9.7211  -17.8976 C   0  0  0  0  0  0
   -4.1291   -9.8496  -19.1477 C   0  0  0  0  0  0
   -3.6268  -11.0870  -19.5842 C   0  0  0  0  0  0
   -4.8538  -10.8227  -17.0338 C   0  0  0  0  0  0
   -4.3298  -12.0615  -17.4375 C   0  0  0  0  0  0
   -3.7445  -12.2171  -18.7332 C   0  0  0  0  0  0
   -3.3340  -13.5174  -19.1111 C   0  0  0  0  0  0
   -3.5421  -14.5802  -18.2237 C   0  0  0  0  0  0
   -4.1101  -14.2896  -16.9785 C   0  0  0  0  0  0
   -4.4541  -13.0709  -16.5693 N   0  0  0  0  0  0
   -5.5071  -10.6858  -15.8234 O   0  0  0  0  0  0
   -4.3348  -11.4778  -22.2941 C   0  0  0  0  0  0
   -4.7911  -12.8060  -22.4103 C   0  0  0  0  0  0
   -5.9218  -13.0887  -23.2017 C   0  0  0  0  0  0
   -6.5943  -12.0461  -23.8749 C   0  0  0  0  0  0
   -6.1283  -10.7198  -23.7601 C   0  0  0  0  0  0
   -5.0016  -10.4325  -22.9656 C   0  0  0  0  0  0
   -7.8112  -12.3435  -24.7256 C   0  0  0  0  0  0
   -5.2414   -8.3947  -17.3850 C   0  0  0  0  0  0
   -4.4540   -8.2448  -16.3274 F   0  0  0  0  0  0
   -5.0793   -7.3834  -18.2230 F   0  0  0  0  0  0
   -6.5233   -8.4629  -17.0227 F   0  0  0  0  0  0
   -4.0395   -8.9900  -19.7892 H   0  0  0  0  0  0
   -2.9106  -13.7585  -20.0682 H   0  0  0  0  0  0
   -3.3013  -15.5975  -18.4950 H   0  0  0  0  0  0
   -4.4255  -15.0824  -16.3137 H   0  0  0  0  0  0
   -6.2760  -10.1309  -15.9559 H   0  0  0  0  0  0
   -4.2800  -13.6071  -21.8995 H   0  0  0  0  0  0
   -6.2671  -14.1083  -23.2912 H   0  0  0  0  0  0
   -6.6386   -9.9177  -24.2733 H   0  0  0  0  0  0
   -4.6579   -9.4127  -22.8729 H   0  0  0  0  0  0
   -8.2253  -13.3247  -24.4940 H   0  0  0  0  0  0
   -8.5888  -11.5975  -24.5545 H   0  0  0  0  0  0
   -7.5437  -12.3234  -25.7827 H   0  0  0  0  0  0
  1  2  2  0  0  0
  2  3  2  0  0  0
  2  6  1  0  0  0
  2 15  1  0  0  0
  4  5  2  0  0  0
  4  7  1  0  0  0
  4 22  1  0  0  0
  5  6  1  0  0  0
  5 26  1  0  0  0
  6  9  2  0  0  0
  7  8  2  0  0  0
  7 14  1  0  0  0
  8  9  1  0  0  0
  8 13  1  0  0  0
  9 10  1  0  0  0
 10 11  2  0  0  0
 10 27  1  0  0  0
 11 12  1  0  0  0
 11 28  1  0  0  0
 12 13  2  0  0  0
 12 29  1  0  0  0
 14 30  1  0  0  0
 15 16  2  0  0  0
 15 20  1  0  0  0
 16 17  1  0  0  0
 16 31  1  0  0  0
 17 18  2  0  0  0
 17 32  1  0  0  0
 18 19  1  0  0  0
 18 21  1  0  0  0
 19 20  2  0  0  0
 19 33  1  0  0  0
 20 34  1  0  0  0
 21 35  1  0  0  0
 21 36  1  0  0  0
 21 37  1  0  0  0
 22 23  1  0  0  0
 22 24  1  0  0  0
 22 25  1  0  0  0
M  END
> <s_m_entry_id>
496

> <s_m_entry_name>
glide-dock_SP_comt_chembl_pv.495

> <s_m_Source_Path>
/home/csk/Desktop/cluster/DUD-E-result/comt/glide-dock_SP_comt_chembl

> <s_m_Source_File>
glide-dock_SP_comt_chembl_pv.maegz

> <i_m_Source_File_Index>
495

> <chembl_id>
CHEMBL4165800

> <chembl_pref_name>
None

> <i_lp_mmshare_version>
53161

> <i_f3d_flags>
0

> <r_lp_tautomer_probability>
1

> <s_lp_Force_Field>
OPLS_2005

> <r_lp_Energy>
19.207096

> <b_lp_Chiralities_Consistent>
1

> <s_lp_Variant>
CHEMBL2023_lig70-1

> <s_i_glide_gridfile>
glide-grid_3bwm

> <i_i_glide_lignum>
92

> <i_i_glide_rotatable_bonds>
4

> <r_i_docking_score>
-6.91698646821046

> <r_i_glide_ligand_efficiency>
-0.276679458728418

> <r_i_glide_ligand_efficiency_sa>
-0.809015644252989

> <r_i_glide_ligand_efficiency_ln>
-1.63953307832343

> <r_i_glide_gscore>
-6.91698646821046

> <r_i_glide_lipo>
-0.842665365138275

> <r_i_glide_hbond>
0

> <r_i_glide_metal>
-2.3

> <r_i_glide_rewards>
-0.996144241666666

> <r_i_glide_evdw>
-19.8149509429932

> <r_i_glide_ecoul>
-12.9458169937134

> <r_i_glide_erotb>
0.285422337983678

> <r_i_glide_esite>
-0.130979103182528

> <r_i_glide_emodel>
-45.6735328426385

> <r_i_glide_energy>
-32.7607679367065

> <r_i_glide_einternal>
10.2112741470337

> <i_i_glide_confnum>
3

> <i_i_glide_posenum>
178

> <r_i_glide_eff_state_penalty>
0

> <s_user_duplicate_titles>
CHEMBL2023_lig70

> <s_m_subgroup_title>
glide-dock_SP_comt_chembl_pv

> <s_m_subgroupid>
glide-dock_SP_comt_chembl_pv

> <b_m_subgroup_collapsed>
1

$$$$
CHEMBL2023_lig20
                    3D
 Schrodinger Suite 2021-1.
 39 40  0  0  1  0            999 V2000
   -4.7867  -11.2355  -16.6716 C   0  0  0  0  0  0
   -4.3431  -10.9037  -17.9671 C   0  0  0  0  0  0
   -4.3064  -13.5523  -17.1514 C   0  0  0  0  0  0
   -4.7826  -12.5719  -16.2628 C   0  0  0  0  0  0
   -3.8609  -13.1969  -18.4508 C   0  0  0  0  0  0
   -3.9100  -11.8712  -18.8238 N   0  3  0  0  0  0
   -5.2540  -12.9005  -15.0230 O   0  0  0  0  0  0
   -5.2540  -10.2860  -15.8230 O   0  5  0  0  0  0
   -3.3735  -14.2953  -19.4069 C   0  0  0  0  0  0
   -3.6540  -15.6190  -19.0033 O   0  0  0  0  0  0
   -3.5299  -11.4213  -20.1595 C   0  0  0  0  0  0
   -2.3260  -11.8264  -20.7691 C   0  0  0  0  0  0
   -1.9660  -11.3816  -22.0539 C   0  0  0  0  0  0
   -2.8142  -10.5114  -22.7628 C   0  0  0  0  0  0
   -4.0123  -10.0804  -22.1623 C   0  0  0  0  0  0
   -4.3536  -10.5204  -20.8673 C   0  0  0  0  0  0
   -2.4331  -10.0566  -24.1605 C   0  0  0  0  0  0
   -1.5641   -8.7851  -24.1736 C   0  0  0  0  0  0
   -2.3341   -7.4697  -23.9552 C   0  0  0  0  0  0
   -3.2502   -7.1026  -25.1329 C   0  0  0  0  0  0
   -4.3386   -9.8837  -18.3239 H   0  0  0  0  0  0
   -4.3186  -14.5831  -16.8283 H   0  0  0  0  0  0
   -5.7107  -13.7473  -15.0876 H   0  0  0  0  0  0
   -3.8026  -14.1520  -20.3993 H   0  0  0  0  0  0
   -2.2910  -14.2673  -19.4907 H   0  0  0  0  0  0
   -3.1574  -15.8182  -18.2230 H   0  0  0  0  0  0
   -1.6540  -12.4756  -20.2519 H   0  0  0  0  0  0
   -1.0368  -11.7133  -22.4950 H   0  0  0  0  0  0
   -4.6688   -9.4013  -22.6876 H   0  0  0  0  0  0
   -5.2540  -10.1511  -20.4158 H   0  0  0  0  0  0
   -3.3308   -9.9277  -24.7651 H   0  0  0  0  0  0
   -1.8779  -10.8668  -24.6349 H   0  0  0  0  0  0
   -1.0564   -8.7211  -25.1368 H   0  0  0  0  0  0
   -0.7696   -8.8809  -23.4323 H   0  0  0  0  0  0
   -1.6119   -6.6631  -23.8231 H   0  0  0  0  0  0
   -2.9091   -7.5090  -23.0299 H   0  0  0  0  0  0
   -3.6540   -6.0966  -25.0230 H   0  0  0  0  0  0
   -4.0953   -7.7860  -25.2124 H   0  0  0  0  0  0
   -2.7066   -7.1279  -26.0777 H   0  0  0  0  0  0
  1  2  2  0  0  0
  1  8  1  0  0  0
  1  4  1  0  0  0
  2  6  1  0  0  0
  2 21  1  0  0  0
  3 22  1  0  0  0
  3  5  1  0  0  0
  3  4  2  0  0  0
  4  7  1  0  0  0
  5  9  1  0  0  0
  5  6  2  0  0  0
  6 11  1  0  0  0
  7 23  1  0  0  0
  9 10  1  0  0  0
  9 24  1  0  0  0
  9 25  1  0  0  0
 10 26  1  0  0  0
 11 12  2  0  0  0
 11 16  1  0  0  0
 12 13  1  0  0  0
 12 27  1  0  0  0
 13 14  2  0  0  0
 13 28  1  0  0  0
 14 15  1  0  0  0
 14 17  1  0  0  0
 15 16  2  0  0  0
 15 29  1  0  0  0
 16 30  1  0  0  0
 17 18  1  0  0  0
 17 31  1  0  0  0
 17 32  1  0  0  0
 18 19  1  0  0  0
 18 33  1  0  0  0
 18 34  1  0  0  0
 19 20  1  0  0  0
 19 35  1  0  0  0
 19 36  1  0  0  0
 20 37  1  0  0  0
 20 38  1  0  0  0
 20 39  1  0  0  0
M  CHG  2   6   1   8  -1
M  END
> <s_m_entry_id>
506

> <s_m_entry_name>
glide-dock_SP_comt_chembl_pv.505

> <s_m_Source_Path>
/home/csk/Desktop/cluster/DUD-E-result/comt/glide-dock_SP_comt_chembl

> <s_m_Source_File>
glide-dock_SP_comt_chembl_pv.maegz

> <i_m_Source_File_Index>
505

> <chembl_id>
CHEMBL3425731

> <chembl_pref_name>
None

> <i_lp_mmshare_version>
53161

> <i_f3d_flags>
0

> <r_lp_tautomer_probability>
0.995892618013405

> <s_lp_Force_Field>
OPLS_2005

> <r_lp_Energy>
19.940788

> <b_lp_Chiralities_Consistent>
1

> <s_lp_Variant>
CHEMBL2023_lig20-1

> <s_i_glide_gridfile>
glide-grid_3bwm

> <i_i_glide_lignum>
29

> <i_i_glide_rotatable_bonds>
7

> <r_i_docking_score>
-6.8872601830875

> <r_i_glide_ligand_efficiency>
-0.344363009154375

> <r_i_glide_ligand_efficiency_sa>
-0.934745017618853

> <r_i_glide_ligand_efficiency_ln>
-1.72365406678302

> <r_i_glide_gscore>
-6.8872601830875

> <r_i_glide_lipo>
-0.595607527527609

> <r_i_glide_hbond>
-0.256906175375244

> <r_i_glide_metal>
-1.90647656713192

> <r_i_glide_rewards>
-1.545498

> <r_i_glide_evdw>
-14.9408779144287

> <r_i_glide_ecoul>
-18.6408843994141

> <r_i_glide_erotb>
0.960404642580821

> <r_i_glide_esite>
0

> <r_i_glide_emodel>
-65.0534002431876

> <r_i_glide_energy>
-33.5817623138428

> <r_i_glide_einternal>
4.89433479309082

> <i_i_glide_confnum>
118

> <i_i_glide_posenum>
364

> <r_i_glide_eff_state_penalty>
0

> <s_user_duplicate_titles>
CHEMBL2023_lig20,CHEMBL2023_lig20

> <s_m_subgroup_title>
glide-dock_SP_comt_chembl_pv

> <s_m_subgroupid>
glide-dock_SP_comt_chembl_pv

> <b_m_subgroup_collapsed>
1

$$$$
CHEMBL2023_lig18
                    3D
 Schrodinger Suite 2021-1.
 37 39  0  0  1  0            999 V2000
   -4.8221  -11.2403  -16.6863 C   0  0  0  0  0  0
   -4.4540  -10.9232  -18.0111 C   0  0  0  0  0  0
   -4.3217  -13.5689  -17.1464 C   0  0  0  0  0  0
   -4.7952  -12.5771  -16.2661 C   0  0  0  0  0  0
   -3.9307  -13.2170  -18.4600 C   0  0  0  0  0  0
   -4.0600  -11.9142  -18.8489 N   0  3  0  0  0  0
   -5.2540  -12.8993  -15.0230 O   0  0  0  0  0  0
   -5.2540  -10.2860  -15.8230 O   0  5  0  0  0  0
   -3.3868  -14.2583  -19.4453 C   0  0  0  0  0  0
   -3.2540  -15.5628  -18.9194 O   0  0  0  0  0  0
   -3.8419  -11.5771  -20.2279 C   0  0  0  0  0  0
   -2.6095  -11.0390  -20.6520 C   0  0  0  0  0  0
   -2.3542  -10.8399  -22.0306 C   0  0  0  0  0  0
   -3.3842  -11.1326  -22.9551 C   0  0  0  0  0  0
   -4.6273  -11.6348  -22.5277 C   0  0  0  0  0  0
   -4.8540  -11.8731  -21.1622 C   0  0  0  0  0  0
   -1.0375  -10.3678  -22.5045 C   0  0  0  0  0  0
    0.1551  -10.7930  -21.8721 C   0  0  0  0  0  0
    1.4130  -10.3428  -22.3174 C   0  0  0  0  0  0
    1.4982   -9.4600  -23.4090 C   0  0  0  0  0  0
    0.3235   -9.0322  -24.0536 C   0  0  0  0  0  0
   -0.9325   -9.4847  -23.6047 C   0  0  0  0  0  0
   -4.5154   -9.9264  -18.4252 H   0  0  0  0  0  0
   -4.2961  -14.5971  -16.8147 H   0  0  0  0  0  0
   -5.7059  -13.7490  -15.0799 H   0  0  0  0  0  0
   -2.4161  -13.9385  -19.8217 H   0  0  0  0  0  0
   -4.0540  -14.3323  -20.3037 H   0  0  0  0  0  0
   -2.5831  -15.5642  -18.2524 H   0  0  0  0  0  0
   -1.8490  -10.8077  -19.9229 H   0  0  0  0  0  0
   -3.2199  -10.9919  -24.0136 H   0  0  0  0  0  0
   -5.3984  -11.8565  -23.2512 H   0  0  0  0  0  0
   -5.7992  -12.2860  -20.8390 H   0  0  0  0  0  0
    0.1170  -11.4779  -21.0383 H   0  0  0  0  0  0
    2.3131  -10.6757  -21.8213 H   0  0  0  0  0  0
    2.4620   -9.1120  -23.7509 H   0  0  0  0  0  0
    0.3853   -8.3535  -24.8919 H   0  0  0  0  0  0
   -1.8210   -9.1346  -24.1095 H   0  0  0  0  0  0
  1  2  2  0  0  0
  1  8  1  0  0  0
  1  4  1  0  0  0
  2  6  1  0  0  0
  2 23  1  0  0  0
  3 24  1  0  0  0
  3  5  1  0  0  0
  3  4  2  0  0  0
  4  7  1  0  0  0
  5  9  1  0  0  0
  5  6  2  0  0  0
  6 11  1  0  0  0
  7 25  1  0  0  0
  9 10  1  0  0  0
  9 26  1  0  0  0
  9 27  1  0  0  0
 10 28  1  0  0  0
 11 12  2  0  0  0
 11 16  1  0  0  0
 12 13  1  0  0  0
 12 29  1  0  0  0
 13 14  2  0  0  0
 13 17  1  0  0  0
 14 15  1  0  0  0
 14 30  1  0  0  0
 15 16  2  0  0  0
 15 31  1  0  0  0
 16 32  1  0  0  0
 17 18  2  0  0  0
 17 22  1  0  0  0
 18 19  1  0  0  0
 18 33  1  0  0  0
 19 20  2  0  0  0
 19 34  1  0  0  0
 20 21  1  0  0  0
 20 35  1  0  0  0
 21 22  2  0  0  0
 21 36  1  0  0  0
 22 37  1  0  0  0
M  CHG  2   6   1   8  -1
M  END
> <s_m_entry_id>
513

> <s_m_entry_name>
glide-dock_SP_comt_chembl_pv.512

> <s_m_Source_Path>
/home/csk/Desktop/cluster/DUD-E-result/comt/glide-dock_SP_comt_chembl

> <s_m_Source_File>
glide-dock_SP_comt_chembl_pv.maegz

> <i_m_Source_File_Index>
512

> <chembl_id>
CHEMBL3425733

> <chembl_pref_name>
None

> <i_lp_mmshare_version>
53161

> <i_f3d_flags>
0

> <r_lp_tautomer_probability>
0.995892618013405

> <s_lp_Force_Field>
OPLS_2005

> <r_lp_Energy>
26.090375

> <b_lp_Chiralities_Consistent>
1

> <s_lp_Variant>
CHEMBL2023_lig18-1

> <s_i_glide_gridfile>
glide-grid_3bwm

> <i_i_glide_lignum>
27

> <i_i_glide_rotatable_bonds>
5

> <r_i_docking_score>
-6.87472199377585

> <r_i_glide_ligand_efficiency>
-0.312487363353448

> <r_i_glide_ligand_efficiency_sa>
-0.875601881546987

> <r_i_glide_ligand_efficiency_ln>
-1.68043281685636

> <r_i_glide_gscore>
-6.87472199377585

> <r_i_glide_lipo>
-0.558494170707912

> <r_i_glide_hbond>
-0.131693540654185

> <r_i_glide_metal>
-1.91277170344722

> <r_i_glide_rewards>
-1.409205

> <r_i_glide_evdw>
-18.9530067443848

> <r_i_glide_ecoul>
-17.0133895874023

> <r_i_glide_erotb>
0.637101196363056

> <r_i_glide_esite>
0

> <r_i_glide_emodel>
-67.3714050736756

> <r_i_glide_energy>
-35.9663963317871

> <r_i_glide_einternal>
3.14851117134094

> <i_i_glide_confnum>
41

> <i_i_glide_posenum>
370

> <r_i_glide_eff_state_penalty>
0

> <s_user_duplicate_titles>
CHEMBL2023_lig18,CHEMBL2023_lig18

> <s_m_subgroup_title>
glide-dock_SP_comt_chembl_pv

> <s_m_subgroupid>
glide-dock_SP_comt_chembl_pv

> <b_m_subgroup_collapsed>
1

$$$$
CHEMBL2023_lig10
                    3D
 Schrodinger Suite 2021-1.
 46 48  0  0  1  0            999 V2000
   -4.7845  -11.2826  -16.7038 C   0  0  0  0  0  0
   -4.5126  -11.0443  -18.0696 C   0  0  0  0  0  0
   -4.3219  -13.6271  -17.1169 C   0  0  0  0  0  0
   -4.7704  -12.6049  -16.2548 C   0  0  0  0  0  0
   -4.0242  -13.3762  -18.4885 C   0  0  0  0  0  0
   -4.2254  -12.0794  -18.9169 N   0  3  0  0  0  0
   -5.2561  -12.8892  -15.0091 O   0  0  0  0  0  0
   -5.1367  -10.2865  -15.8245 O   0  5  0  0  0  0
   -4.2827  -11.7579  -20.3236 C   0  0  0  0  0  0
   -3.4184  -10.7873  -20.8865 C   0  0  0  0  0  0
   -3.4530  -10.5240  -22.2762 C   0  0  0  0  0  0
   -4.4240  -11.1684  -23.0712 C   0  0  0  0  0  0
   -5.3234  -12.0900  -22.5060 C   0  0  0  0  0  0
   -5.2496  -12.3896  -21.1349 C   0  0  0  0  0  0
   -2.4675   -9.6429  -22.9180 C   0  0  0  0  0  0
   -1.1172  -10.0424  -23.0241 C   0  0  0  0  0  0
   -0.1739   -9.2242  -23.6767 C   0  0  0  0  0  0
   -0.5709   -7.9882  -24.2229 C   0  0  0  0  0  0
   -1.9140   -7.5796  -24.1222 C   0  0  0  0  0  0
   -2.8546   -8.4080  -23.4800 C   0  0  0  0  0  0
   -3.6538  -14.5838  -19.4321 C   0  0  2  0  0  0
   -3.6540  -15.8005  -18.6979 O   0  0  0  0  0  0
   -2.2412  -14.6741  -20.0602 C   0  0  0  0  0  0
   -1.8306  -13.5444  -21.0229 C   0  0  0  0  0  0
   -1.9003  -15.9973  -20.7935 C   0  0  0  0  0  0
   -4.6260  -10.0662  -18.5156 H   0  0  0  0  0  0
   -4.2953  -14.6260  -16.7082 H   0  0  0  0  0  0
   -5.6941  -13.7442  -15.0413 H   0  0  0  0  0  0
   -2.6810  -10.2962  -20.2689 H   0  0  0  0  0  0
   -4.4676  -10.9685  -24.1325 H   0  0  0  0  0  0
   -6.0659  -12.5695  -23.1267 H   0  0  0  0  0  0
   -5.9552  -13.0860  -20.7101 H   0  0  0  0  0  0
   -0.8018  -10.9897  -22.6118 H   0  0  0  0  0  0
    0.8559   -9.5418  -23.7540 H   0  0  0  0  0  0
    0.1523   -7.3568  -24.7180 H   0  0  0  0  0  0
   -2.2253   -6.6337  -24.5423 H   0  0  0  0  0  0
   -3.8851   -8.0924  -23.4219 H   0  0  0  0  0  0
   -4.3835  -14.6757  -20.2373 H   0  0  0  0  0  0
   -4.5032  -15.9211  -18.2957 H   0  0  0  0  0  0
   -1.6519  -14.6861  -19.1594 H   0  0  0  0  0  0
   -2.5475  -13.4261  -21.8344 H   0  0  0  0  0  0
   -0.8623  -13.7465  -21.4804 H   0  0  0  0  0  0
   -1.7074  -12.6018  -20.5018 H   0  0  0  0  0  0
   -2.4578  -16.1046  -21.7228 H   0  0  0  0  0  0
   -0.8441  -16.0179  -21.0644 H   0  0  0  0  0  0
   -2.0541  -16.8927  -20.1913 H   0  0  0  0  0  0
  1  2  2  0  0  0
  1  8  1  0  0  0
  1  4  1  0  0  0
  2  6  1  0  0  0
  2 26  1  0  0  0
  3 27  1  0  0  0
  3  5  1  0  0  0
  3  4  2  0  0  0
  4  7  1  0  0  0
  5 21  1  0  0  0
  5  6  2  0  0  0
  6  9  1  0  0  0
  7 28  1  0  0  0
  9 10  2  0  0  0
  9 14  1  0  0  0
 10 11  1  0  0  0
 10 29  1  0  0  0
 11 12  2  0  0  0
 11 15  1  0  0  0
 12 13  1  0  0  0
 12 30  1  0  0  0
 13 14  2  0  0  0
 13 31  1  0  0  0
 14 32  1  0  0  0
 15 16  2  0  0  0
 15 20  1  0  0  0
 16 17  1  0  0  0
 16 33  1  0  0  0
 17 18  2  0  0  0
 17 34  1  0  0  0
 18 19  1  0  0  0
 18 35  1  0  0  0
 19 20  2  0  0  0
 19 36  1  0  0  0
 20 37  1  0  0  0
 21 22  1  0  0  0
 21 23  1  0  0  0
 21 38  1  0  0  0
 22 39  1  0  0  0
 23 24  1  0  0  0
 23 25  1  0  0  0
 23 40  1  0  0  0
 24 41  1  0  0  0
 24 42  1  0  0  0
 24 43  1  0  0  0
 25 44  1  0  0  0
 25 45  1  0  0  0
 25 46  1  0  0  0
M  CHG  2   6   1   8  -1
M  END
> <s_m_entry_id>
519

> <s_m_entry_name>
glide-dock_SP_comt_chembl_pv.518

> <s_m_Source_Path>
/home/csk/Desktop/cluster/DUD-E-result/comt/glide-dock_SP_comt_chembl

> <s_m_Source_File>
glide-dock_SP_comt_chembl_pv.maegz

> <i_m_Source_File_Index>
518

> <chembl_id>
CHEMBL3425741

> <chembl_pref_name>
None

> <i_lp_mmshare_version>
53161

> <i_f3d_flags>
0

> <r_lp_tautomer_probability>
0.995892618013405

> <s_lp_Force_Field>
OPLS_2005

> <r_lp_Energy>
26.972982

> <b_lp_Chiralities_Consistent>
1

> <s_lp_Variant>
CHEMBL2023_lig10-1

> <s_i_glide_gridfile>
glide-grid_3bwm

> <i_i_glide_lignum>
15

> <i_i_glide_rotatable_bonds>
6

> <r_i_docking_score>
-6.86366742694577

> <r_i_glide_ligand_efficiency>
-0.274546697077831

> <r_i_glide_ligand_efficiency_sa>
-0.802779411361982

> <r_i_glide_ligand_efficiency_ln>
-1.62689486770097

> <r_i_glide_gscore>
-6.86366742694577

> <r_i_glide_lipo>
-0.444082976980363

> <r_i_glide_hbond>
-0.118394239169327

> <r_i_glide_metal>
-2.00272594011879

> <r_i_glide_rewards>
-1.42229768181818

> <r_i_glide_evdw>
-16.4164409637451

> <r_i_glide_ecoul>
-17.0577640533447

> <r_i_glide_erotb>
0.503320067329862

> <r_i_glide_esite>
0

> <r_i_glide_emodel>
-55.4416685411047

> <r_i_glide_energy>
-33.4742050170898

> <r_i_glide_einternal>
11.1251792907715

> <i_i_glide_confnum>
25

> <i_i_glide_posenum>
345

> <r_i_glide_eff_state_penalty>
0

> <s_user_duplicate_titles>
CHEMBL2023_lig10

> <s_m_subgroup_title>
glide-dock_SP_comt_chembl_pv

> <s_m_subgroupid>
glide-dock_SP_comt_chembl_pv

> <b_m_subgroup_collapsed>
1

$$$$
CHEMBL2023_lig51
                    3D
 Schrodinger Suite 2021-1.
 34 36  0  0  1  0            999 V2000
   -5.6538   -9.6321  -15.8230 O   0  0  0  0  0  0
   -5.0903  -10.3631  -16.7871 C   0  0  0  0  0  0
   -4.7732   -9.8472  -17.9898 C   0  0  0  0  0  0
   -4.2431  -10.6377  -19.0074 N   0  0  0  0  0  0
   -4.0707  -11.9164  -18.8375 C   0  0  0  0  0  0
   -4.3750  -12.4738  -17.5796 N   0  0  0  0  0  0
   -4.8540  -11.7771  -16.5274 C   0  0  0  0  0  0
   -5.0750  -12.2860  -15.4230 O   0  0  0  0  0  0
   -3.5790  -12.7640  -19.9625 C   0  0  0  0  0  0
   -3.7142  -12.3198  -21.2986 C   0  0  0  0  0  0
   -3.2275  -13.1041  -22.3610 C   0  0  0  0  0  0
   -2.5937  -14.3316  -22.0955 C   0  0  0  0  0  0
   -2.4540  -14.7786  -20.7671 C   0  0  0  0  0  0
   -2.9574  -14.0055  -19.7025 C   0  0  0  0  0  0
   -1.7864  -16.0388  -20.4988 C   0  0  0  0  0  0
   -1.2539  -17.1230  -20.3232 C   0  0  0  0  0  0
   -0.6650  -18.4406  -20.1659 C   0  0  0  0  0  0
    0.7343  -18.6050  -20.2230 C   0  0  0  0  0  0
    1.2994  -19.8861  -20.0666 C   0  0  0  0  0  0
    0.4665  -21.0042  -19.8665 C   0  0  0  0  0  0
   -0.9320  -20.8419  -19.8232 C   0  0  0  0  0  0
   -1.4977  -19.5608  -19.9682 C   0  0  0  0  0  0
   -5.7900   -8.7510  -16.1499 H   0  0  0  0  0  0
   -4.9428   -8.8084  -18.2357 H   0  0  0  0  0  0
   -4.2520  -13.4667  -17.4449 H   0  0  0  0  0  0
   -4.1926  -11.3766  -21.5221 H   0  0  0  0  0  0
   -3.3345  -12.7603  -23.3792 H   0  0  0  0  0  0
   -2.2137  -14.9256  -22.9145 H   0  0  0  0  0  0
   -2.8379  -14.3610  -18.6890 H   0  0  0  0  0  0
    1.3786  -17.7513  -20.3763 H   0  0  0  0  0  0
    2.3717  -20.0107  -20.1012 H   0  0  0  0  0  0
    0.9011  -21.9862  -19.7494 H   0  0  0  0  0  0
   -1.5716  -21.6996  -19.6778 H   0  0  0  0  0  0
   -2.5716  -19.4422  -19.9333 H   0  0  0  0  0  0
  1  2  1  0  0  0
  1 23  1  0  0  0
  2  3  2  0  0  0
  2  7  1  0  0  0
  3  4  1  0  0  0
  3 24  1  0  0  0
  4  5  2  0  0  0
  5  6  1  0  0  0
  5  9  1  0  0  0
  6  7  1  0  0  0
  6 25  1  0  0  0
  7  8  2  0  0  0
  9 10  2  0  0  0
  9 14  1  0  0  0
 10 11  1  0  0  0
 10 26  1  0  0  0
 11 12  2  0  0  0
 11 27  1  0  0  0
 12 13  1  0  0  0
 12 28  1  0  0  0
 13 14  2  0  0  0
 13 15  1  0  0  0
 14 29  1  0  0  0
 15 16  3  0  0  0
 16 17  1  0  0  0
 17 18  2  0  0  0
 17 22  1  0  0  0
 18 19  1  0  0  0
 18 30  1  0  0  0
 19 20  2  0  0  0
 19 31  1  0  0  0
 20 21  1  0  0  0
 20 32  1  0  0  0
 21 22  2  0  0  0
 21 33  1  0  0  0
 22 34  1  0  0  0
M  END
> <s_m_entry_id>
520

> <s_m_entry_name>
glide-dock_SP_comt_chembl_pv.519

> <s_m_Source_Path>
/home/csk/Desktop/cluster/DUD-E-result/comt/glide-dock_SP_comt_chembl

> <s_m_Source_File>
glide-dock_SP_comt_chembl_pv.maegz

> <i_m_Source_File_Index>
519

> <chembl_id>
CHEMBL3948365

> <chembl_pref_name>
None

> <i_lp_mmshare_version>
53161

> <i_f3d_flags>
0

> <r_lp_tautomer_probability>
0.514243068145529

> <s_lp_Force_Field>
OPLS_2005

> <r_lp_Energy>
17.592104

> <b_lp_Chiralities_Consistent>
1

> <s_lp_Variant>
CHEMBL2023_lig51-1

> <s_i_glide_gridfile>
glide-grid_3bwm

> <i_i_glide_lignum>
68

> <i_i_glide_rotatable_bonds>
4

> <r_i_docking_score>
-6.85675637508122

> <r_i_glide_ligand_efficiency>
-0.311670744321873

> <r_i_glide_ligand_efficiency_sa>
-0.873313682904712

> <r_i_glide_ligand_efficiency_ln>
-1.67604136433552

> <r_i_glide_gscore>
-6.85675637508122

> <r_i_glide_lipo>
-0.731157191875455

> <r_i_glide_hbond>
-0.0340208148385084

> <r_i_glide_metal>
-2.3

> <r_i_glide_rewards>
-1.44340854545454

> <r_i_glide_evdw>
-25.6591873168945

> <r_i_glide_ecoul>
-11.478476524353

> <r_i_glide_erotb>
0.656561021584975

> <r_i_glide_esite>
0

> <r_i_glide_emodel>
-57.0899019787184

> <r_i_glide_energy>
-37.1376638412476

> <r_i_glide_einternal>
0.0448281988501549

> <i_i_glide_confnum>
1

> <i_i_glide_posenum>
68

> <r_i_glide_eff_state_penalty>
0

> <s_user_duplicate_titles>
CHEMBL2023_lig51

> <s_m_subgroup_title>
glide-dock_SP_comt_chembl_pv

> <s_m_subgroupid>
glide-dock_SP_comt_chembl_pv

> <b_m_subgroup_collapsed>
1

$$$$
280937
                    3D
 Schrodinger Suite 2021-1.
 16 16  0  0  1  0            999 V2000
   -3.5338  -12.1169  -18.7601 C   0  0  0  0  0  0
   -3.6915  -13.4360  -18.2937 C   0  0  0  0  0  0
   -4.2768  -13.6695  -17.0389 C   0  0  0  0  0  0
   -4.6808  -12.5871  -16.2420 C   0  0  0  0  0  0
   -4.4946  -11.2673  -16.6872 C   0  0  0  0  0  0
   -3.9342  -11.0101  -17.9743 C   0  0  0  0  0  0
   -3.7386   -9.6468  -18.5266 N   0  3  0  0  0  0
   -4.4541   -8.7275  -18.1460 O   0  5  0  0  0  0
   -2.8540   -9.4942  -19.3681 O   0  0  0  0  0  0
   -4.8701  -10.2860  -15.8230 O   0  5  0  0  0  0
   -5.2540  -12.8162  -15.0230 O   0  0  0  0  0  0
   -3.2482  -14.5579  -19.1004 C   0  0  0  0  0  0
   -2.8885  -15.4521  -19.7406 N   0  0  0  0  0  0
   -3.0965  -11.9527  -19.7348 H   0  0  0  0  0  0
   -4.4260  -14.6805  -16.6838 H   0  0  0  0  0  0
   -5.7142  -13.6608  -15.0699 H   0  0  0  0  0  0
  1  6  1  0  0  0
  1  2  2  0  0  0
  1 14  1  0  0  0
  2  3  1  0  0  0
  2 12  1  0  0  0
  3  4  2  0  0  0
  3 15  1  0  0  0
  4  5  1  0  0  0
  4 11  1  0  0  0
  5  6  2  0  0  0
  5 10  1  0  0  0
  6  7  1  0  0  0
  7  8  1  0  0  0
  7  9  2  0  0  0
 11 16  1  0  0  0
 12 13  3  0  0  0
M  CHG  3   7   1   8  -1  10  -1
M  END
> <s_m_entry_id>
765

> <s_m_entry_name>
dock_pv.6

> <s_m_Source_Path>
/home/csk/Desktop/cluster/DUD-E-result/comt/glide-dock_SP_comt_dude

> <s_m_Source_File>
glide-dock_SP_comt_dude_pv.maegz

> <i_m_Source_File_Index>
2

> <i_lp_mmshare_version>
53161

> <i_f3d_flags>
0

> <s_lp_Force_Field>
S-OPLS

> <r_lp_Energy>
26.440418

> <b_lp_Chiralities_Consistent>
1

> <s_lp_Variant>
280937-1

> <s_i_glide_gridfile>
glide-grid_3bwm

> <i_i_glide_lignum>
9

> <i_i_glide_rotatable_bonds>
2

> <r_i_docking_score>
-9.09680071349504

> <r_i_glide_ligand_efficiency>
-0.69975390103808

> <r_i_glide_ligand_efficiency_sa>
-1.645355618972

> <r_i_glide_ligand_efficiency_ln>
-2.55173350343819

> <r_i_glide_gscore>
-9.10450071349504

> <r_i_glide_lipo>
-0.340813702815698

> <r_i_glide_hbond>
-0.314199192558398

> <r_i_glide_metal>
-2.3

> <r_i_glide_rewards>
-2.18788827272727

> <r_i_glide_evdw>
-17.8266468048096

> <r_i_glide_ecoul>
-20.258544921875

> <r_i_glide_erotb>
0

> <r_i_glide_esite>
-0.0314854668719389

> <r_i_glide_emodel>
-84.4501474785183

> <r_i_glide_energy>
-38.0851917266846

> <r_i_glide_einternal>
0.867628872394562

> <i_i_glide_confnum>
1

> <i_i_glide_posenum>
214

> <r_i_glide_eff_state_penalty>
0.0077

> <i_f3d_flags>
0

> <s_epik_input>
TiNDYzFbY0hdYyhbTitdKFtPLV0pPU8pYyhbT0hdKWMoW2NIXTEpW09IXQ==

> <s_epik_cmdline>
J2VwaWtfcHl0aG9uJywgJy1waCcsICc3LjAnLCAnLXRuJywgJzgnLCAnLW1hJywgJzUwMCcsICctaW1hZScsICc8aW5maWxlLm1hZT4nLCAnLW9tYWUnLCAnPG91dGZpbGUubWFlPic=

> <r_epik_Ionization_Penalty>
  0.0073

> <r_epik_Ionization_Penalty_Charging>
  0.0053

> <r_epik_Ionization_Penalty_Neutral>
  0.0020

> <r_epik_State_Penalty>
  0.0077

> <r_epik_Charging_Adjusted_Penalty>
0.0129633501665591

> <i_epik_Tot_Q>
-1

> <i_epik_Tot_abs_Q>
3

> <s_user_duplicate_titles>
280937,280937,280937,280937

> <s_m_subgroup_title>
glide-dock_SP_comt_dude_pv

> <s_m_subgroupid>
glide-dock_SP_comt_dude_pv

> <b_m_subgroup_collapsed>
0

$$$$
280936
                    3D
 Schrodinger Suite 2021-1.
 17 17  0  0  1  0            999 V2000
   -3.6540  -11.8884  -18.7490 C   0  0  0  0  0  0
   -3.7274  -13.2404  -18.3609 C   0  0  0  0  0  0
   -4.2624  -13.5733  -17.0997 C   0  0  0  0  0  0
   -4.7455  -12.5625  -16.2483 C   0  0  0  0  0  0
   -4.7140  -11.2185  -16.6540 C   0  0  0  0  0  0
   -4.1478  -10.8699  -17.9048 C   0  0  0  0  0  0
   -4.0540   -9.4623  -18.3587 C   0  0  0  0  0  0
   -3.2705   -9.0860  -19.2329 O   0  0  0  0  0  0
   -5.2540  -10.2860  -15.8230 O   0  5  0  0  0  0
   -5.2540  -12.8805  -15.0230 O   0  0  0  0  0  0
   -3.2540  -14.2860  -19.2913 C   0  0  0  0  0  0
   -3.2540  -15.4923  -19.0494 O   0  0  0  0  0  0
   -3.2347  -11.6310  -19.7120 H   0  0  0  0  0  0
   -4.3245  -14.6067  -16.7871 H   0  0  0  0  0  0
   -4.7170   -8.7635  -17.8489 H   0  0  0  0  0  0
   -5.7073  -13.7270  -15.1044 H   0  0  0  0  0  0
   -2.8875  -13.9019  -20.2435 H   0  0  0  0  0  0
  1  6  1  0  0  0
  1  2  2  0  0  0
  1 13  1  0  0  0
  2  3  1  0  0  0
  2 11  1  0  0  0
  3  4  2  0  0  0
  3 14  1  0  0  0
  4  5  1  0  0  0
  4 10  1  0  0  0
  5  6  2  0  0  0
  5  9  1  0  0  0
  6  7  1  0  0  0
  7  8  2  0  0  0
  7 15  1  0  0  0
 10 16  1  0  0  0
 11 12  2  0  0  0
 11 17  1  0  0  0
M  CHG  1   9  -1
M  END
> <s_m_entry_id>
766

> <s_m_entry_name>
dock_pv.3

> <s_m_Source_Path>
/home/csk/Desktop/cluster/DUD-E-result/comt/glide-dock_SP_comt_dude

> <s_m_Source_File>
glide-dock_SP_comt_dude_pv.maegz

> <i_m_Source_File_Index>
3

> <i_lp_mmshare_version>
53161

> <i_f3d_flags>
0

> <s_lp_Force_Field>
S-OPLS

> <r_lp_Energy>
18.565527

> <b_lp_Chiralities_Consistent>
1

> <s_lp_Variant>
280936-1

> <s_i_glide_gridfile>
glide-grid_3bwm

> <i_i_glide_lignum>
3

> <i_i_glide_rotatable_bonds>
3

> <r_i_docking_score>
-8.75830104036284

> <r_i_glide_ligand_efficiency>
-0.729858420030237

> <r_i_glide_ligand_efficiency_sa>
-1.67095865552811

> <r_i_glide_ligand_efficiency_ln>
-2.51320965538507

> <r_i_glide_gscore>
-8.79170104036284

> <r_i_glide_lipo>
-0.343714461391981

> <r_i_glide_hbond>
-0.211785997338439

> <r_i_glide_metal>
-2.00587907894688

> <r_i_glide_rewards>
-2.25

> <r_i_glide_evdw>
-17.1823139190674

> <r_i_glide_ecoul>
-20.8080387115479

> <r_i_glide_erotb>
0

> <r_i_glide_esite>
0

> <r_i_glide_emodel>
-82.2807976281531

> <r_i_glide_energy>
-37.9903526306152

> <r_i_glide_einternal>
1.1418936252594

> <i_i_glide_confnum>
1

> <i_i_glide_posenum>
317

> <r_i_glide_eff_state_penalty>
0.0334

> <i_f3d_flags>
0

> <s_epik_input>
Tz1bQ0hdYzFbY0hdYyhbQ0hdPU8pYyhbT0hdKWMoW2NIXTEpW09IXQ==

> <s_epik_cmdline>
J2VwaWtfcHl0aG9uJywgJy1waCcsICc3LjAnLCAnLXRuJywgJzgnLCAnLW1hJywgJzUwMCcsICctaW1hZScsICc8aW5maWxlLm1hZT4nLCAnLW9tYWUnLCAnPG91dGZpbGUubWFlPic=

> <r_epik_Ionization_Penalty>
  0.0398

> <r_epik_Ionization_Penalty_Charging>
  0.0397

> <r_epik_Ionization_Penalty_Neutral>
  0.0002

> <r_epik_State_Penalty>
  0.0334

> <r_epik_Charging_Adjusted_Penalty>
0.0730469056585596

> <i_epik_Tot_Q>
-1

> <i_epik_Tot_abs_Q>
1

> <s_user_duplicate_titles>
280936,280936,280936,280936,280936,280936,280936,280936,280936,280936

> <s_m_subgroup_title>
glide-dock_SP_comt_dude_pv

> <s_m_subgroupid>
glide-dock_SP_comt_dude_pv

> <b_m_subgroup_collapsed>
0

$$$$
97756
                    3D
 Schrodinger Suite 2021-1.
 28 28  0  0  1  0            999 V2000
   -5.2466   -9.9775  -23.2327 C   0  0  0  0  0  0
   -3.7137   -9.9378  -23.2052 C   0  0  0  0  0  0
   -3.0707  -11.2165  -22.6341 C   0  0  0  0  0  0
   -3.5375  -11.5364  -21.2882 N   0  0  0  0  0  0
   -3.1921  -10.8699  -20.1780 C   0  0  0  0  0  0
   -2.4540   -9.8860  -20.1712 O   0  0  0  0  0  0
   -3.8014  -11.3661  -18.9043 C   0  0  0  0  0  0
   -4.2709  -10.4406  -17.9517 C   0  0  0  0  0  0
   -4.7844  -10.8923  -16.7231 C   0  0  0  0  0  0
   -4.8217  -12.2675  -16.4176 C   0  0  0  0  0  0
   -4.3862  -13.1939  -17.3878 C   0  0  0  0  0  0
   -3.8668  -12.7470  -18.6181 C   0  0  0  0  0  0
   -4.4540  -14.5310  -17.1475 O   0  0  0  0  0  0
   -5.2540  -12.6860  -15.1820 O   0  0  0  0  0  0
   -5.2540   -9.9907  -15.8230 O   0  0  0  0  0  0
   -5.6489   -9.0860  -23.7137 H   0  0  0  0  0  0
   -5.6540  -10.0189  -22.2230 H   0  0  0  0  0  0
   -5.6118  -10.8454  -23.7819 H   0  0  0  0  0  0
   -3.3442   -9.7810  -24.2190 H   0  0  0  0  0  0
   -3.3893   -9.0682  -22.6321 H   0  0  0  0  0  0
   -3.3005  -12.0632  -23.2816 H   0  0  0  0  0  0
   -1.9837  -11.1192  -22.6311 H   0  0  0  0  0  0
   -4.1816  -12.3076  -21.1953 H   0  0  0  0  0  0
   -4.2331   -9.3815  -18.1671 H   0  0  0  0  0  0
   -3.5065  -13.4731  -19.3328 H   0  0  0  0  0  0
   -5.2159  -14.7868  -16.6230 H   0  0  0  0  0  0
   -5.6445  -13.5626  -15.2427 H   0  0  0  0  0  0
   -5.4272   -9.1310  -16.1937 H   0  0  0  0  0  0
  1  2  1  0  0  0
  1 16  1  0  0  0
  1 17  1  0  0  0
  1 18  1  0  0  0
  2  3  1  0  0  0
  2 19  1  0  0  0
  2 20  1  0  0  0
  3  4  1  0  0  0
  3 21  1  0  0  0
  3 22  1  0  0  0
  4  5  1  0  0  0
  4 23  1  0  0  0
  5  6  2  0  0  0
  5  7  1  0  0  0
  7 12  1  0  0  0
  7  8  2  0  0  0
  8  9  1  0  0  0
  8 24  1  0  0  0
  9 10  2  0  0  0
  9 15  1  0  0  0
 10 11  1  0  0  0
 10 14  1  0  0  0
 11 12  2  0  0  0
 11 13  1  0  0  0
 12 25  1  0  0  0
 13 26  1  0  0  0
 14 27  1  0  0  0
 15 28  1  0  0  0
M  END
> <s_m_entry_id>
767

> <s_m_entry_name>
dock_pv.18

> <s_m_Source_Path>
/home/csk/Desktop/cluster/DUD-E-result/comt/glide-dock_SP_comt_dude

> <s_m_Source_File>
glide-dock_SP_comt_dude_pv.maegz

> <i_m_Source_File_Index>
4

> <i_lp_mmshare_version>
53161

> <i_f3d_flags>
0

> <r_lp_tautomer_probability>
0.999999999957461

> <s_lp_Force_Field>
S-OPLS

> <r_lp_Energy>
13.935046

> <b_lp_Chiralities_Consistent>
1

> <s_lp_Variant>
97756-1

> <s_i_glide_gridfile>
glide-grid_3bwm

> <i_i_glide_lignum>
38

> <i_i_glide_rotatable_bonds>
7

> <r_i_docking_score>
-8.74611157051488

> <r_i_glide_ligand_efficiency>
-0.583074104700992

> <r_i_glide_ligand_efficiency_sa>
-1.43798439594497

> <r_i_glide_ligand_efficiency_ln>
-2.35868208254438

> <r_i_glide_gscore>
-8.76941157051488

> <r_i_glide_lipo>
-0.439682470460699

> <r_i_glide_hbond>
-0.2804364710281

> <r_i_glide_metal>
-2.3

> <r_i_glide_rewards>
-1.96898982418737

> <r_i_glide_evdw>
-17.9692440032959

> <r_i_glide_ecoul>
-27.3692665100098

> <r_i_glide_erotb>
1.11815939532609

> <r_i_glide_esite>
0

> <r_i_glide_emodel>
-79.2901985643754

> <r_i_glide_energy>
-45.3385105133057

> <r_i_glide_einternal>
3.86226963996887

> <i_i_glide_confnum>
18

> <i_i_glide_posenum>
290

> <r_i_glide_eff_state_penalty>
0.0233

> <i_f3d_flags>
0

> <s_epik_input>
W0NIM11bQ0gyXVtDSDJdW05IXUMoPU8pYzFbY0hdYyhbT0hdKWMoW09IXSljKFtjSF0xKVtPSF0=

> <s_epik_cmdline>
J2VwaWtfcHl0aG9uJywgJy1waCcsICc3LjAnLCAnLXRuJywgJzgnLCAnLW1hJywgJzUwMCcsICctaW1hZScsICc8aW5maWxlLm1hZT4nLCAnLW9tYWUnLCAnPG91dGZpbGUubWFlPic=

> <r_epik_Ionization_Penalty>
  0.0353

> <r_epik_Ionization_Penalty_Charging>
  0.0000

> <r_epik_Ionization_Penalty_Neutral>
  0.0353

> <r_epik_State_Penalty>
  0.0233

> <r_epik_Charging_Adjusted_Penalty>
0.0232903132310365

> <i_epik_Tot_Q>
0

> <i_epik_Tot_abs_Q>
0

> <s_user_duplicate_titles>
97756,97756,97756,97756,97756

> <s_m_subgroup_title>
glide-dock_SP_comt_dude_pv

> <s_m_subgroupid>
glide-dock_SP_comt_dude_pv

> <b_m_subgroup_collapsed>
0

$$$$
233951
                    3D
 Schrodinger Suite 2021-1.
 17 17  0  0  1  0            999 V2000
   -3.7089  -11.8837  -18.7794 C   0  0  0  0  0  0
   -3.7483  -13.2323  -18.3727 C   0  0  0  0  0  0
   -4.2689  -13.5609  -17.1046 C   0  0  0  0  0  0
   -4.7556  -12.5490  -16.2574 C   0  0  0  0  0  0
   -4.7371  -11.2079  -16.6756 C   0  0  0  0  0  0
   -4.2053  -10.8561  -17.9463 C   0  0  0  0  0  0
   -4.1364   -9.4612  -18.4300 N   0  3  0  0  0  0
   -5.0504   -8.6860  -18.1746 O   0  5  0  0  0  0
   -3.1554   -9.1490  -19.1000 O   0  0  0  0  0  0
   -5.2540  -10.2860  -15.8230 O   0  5  0  0  0  0
   -5.2540  -12.8624  -15.0230 O   0  0  0  0  0  0
   -3.2540  -14.2809  -19.2907 C   0  0  0  0  0  0
   -3.2540  -15.4860  -19.0427 O   0  0  0  0  0  0
   -3.3101  -11.6290  -19.7511 H   0  0  0  0  0  0
   -4.3127  -14.5919  -16.7811 H   0  0  0  0  0  0
   -5.7025  -13.7122  -15.0946 H   0  0  0  0  0  0
   -2.8745  -13.8998  -20.2390 H   0  0  0  0  0  0
  1  6  1  0  0  0
  1  2  2  0  0  0
  1 14  1  0  0  0
  2  3  1  0  0  0
  2 12  1  0  0  0
  3  4  2  0  0  0
  3 15  1  0  0  0
  4  5  1  0  0  0
  4 11  1  0  0  0
  5  6  2  0  0  0
  5 10  1  0  0  0
  6  7  1  0  0  0
  7  8  1  0  0  0
  7  9  2  0  0  0
 11 16  1  0  0  0
 12 13  2  0  0  0
 12 17  1  0  0  0
M  CHG  3   7   1   8  -1  10  -1
M  END
> <s_m_entry_id>
771

> <s_m_entry_name>
dock_pv.7

> <s_m_Source_Path>
/home/csk/Desktop/cluster/DUD-E-result/comt/glide-dock_SP_comt_dude

> <s_m_Source_File>
glide-dock_SP_comt_dude_pv.maegz

> <i_m_Source_File_Index>
8

> <i_lp_mmshare_version>
53161

> <i_f3d_flags>
0

> <s_lp_Force_Field>
S-OPLS

> <r_lp_Energy>
24.407139

> <b_lp_Chiralities_Consistent>
1

> <s_lp_Variant>
233951-1

> <s_i_glide_gridfile>
glide-grid_3bwm

> <i_i_glide_lignum>
10

> <i_i_glide_rotatable_bonds>
3

> <r_i_docking_score>
-8.63919047394354

> <r_i_glide_ligand_efficiency>
-0.664553113380273

> <r_i_glide_ligand_efficiency_sa>
-1.56258678598788

> <r_i_glide_ligand_efficiency_ln>
-2.42336976144177

> <r_i_glide_gscore>
-8.64289047394354

> <r_i_glide_lipo>
-0.35019296680321

> <r_i_glide_hbond>
-0.1704518892624

> <r_i_glide_metal>
-2.09556346284331

> <r_i_glide_rewards>
-2.16742936363636

> <r_i_glide_evdw>
-19.021297454834

> <r_i_glide_ecoul>
-19.2897415161133

> <r_i_glide_erotb>
0

> <r_i_glide_esite>
-0.0147266912395702

> <r_i_glide_emodel>
-82.2872881523225

> <r_i_glide_energy>
-38.3110389709473

> <r_i_glide_einternal>
0.991279661655426

> <i_i_glide_confnum>
1

> <i_i_glide_posenum>
376

> <r_i_glide_eff_state_penalty>
0.0037

> <i_f3d_flags>
0

> <s_epik_input>
Tz1bQ0hdYzFbY0hdYyhbTitdKFtPLV0pPU8pYyhbT0hdKWMoW2NIXTEpW09IXQ==

> <s_epik_cmdline>
J2VwaWtfcHl0aG9uJywgJy1waCcsICc3LjAnLCAnLXRuJywgJzgnLCAnLW1hJywgJzUwMCcsICctaW1hZScsICc8aW5maWxlLm1hZT4nLCAnLW9tYWUnLCAnPG91dGZpbGUubWFlPic=

> <r_epik_Ionization_Penalty>
  0.0046

> <r_epik_Ionization_Penalty_Charging>
  0.0040

> <r_epik_Ionization_Penalty_Neutral>
  0.0006

> <r_epik_State_Penalty>
  0.0037

> <r_epik_Charging_Adjusted_Penalty>
0.00774120845159647

> <i_epik_Tot_Q>
-1

> <i_epik_Tot_abs_Q>
3

> <s_user_duplicate_titles>
233951,233951,233951,233951

> <s_m_subgroup_title>
glide-dock_SP_comt_dude_pv

> <s_m_subgroupid>
glide-dock_SP_comt_dude_pv

> <b_m_subgroup_collapsed>
0

$$$$
281359
                    3D
 Schrodinger Suite 2021-1.
 16 16  0  0  1  0            999 V2000
   -3.5195  -12.4990  -18.6136 C   0  0  0  0  0  0
   -3.6799  -13.7777  -18.0562 C   0  0  0  0  0  0
   -4.2761  -13.8860  -16.7913 C   0  0  0  0  0  0
   -4.6949  -12.7497  -16.0775 C   0  0  0  0  0  0
   -4.4962  -11.4655  -16.6021 C   0  0  0  0  0  0
   -3.9159  -11.3528  -17.8927 C   0  0  0  0  0  0
   -3.6540  -10.0847  -18.5261 C   0  0  0  0  0  0
   -3.4200   -9.0860  -19.0433 N   0  0  0  0  0  0
   -4.8540  -10.3915  -15.8230 O   0  5  0  0  0  0
   -5.2540  -12.9117  -14.8415 O   0  0  0  0  0  0
   -3.2540  -14.9989  -18.7742 C   0  0  0  0  0  0
   -2.8489  -15.0208  -19.9350 O   0  0  0  0  0  0
   -3.0689  -12.3946  -19.5915 H   0  0  0  0  0  0
   -4.4540  -14.8608  -16.3597 H   0  0  0  0  0  0
   -5.7019  -13.7631  -14.8360 H   0  0  0  0  0  0
   -3.3430  -15.9159  -18.1926 H   0  0  0  0  0  0
  1  6  1  0  0  0
  1  2  2  0  0  0
  1 13  1  0  0  0
  2  3  1  0  0  0
  2 11  1  0  0  0
  3  4  2  0  0  0
  3 14  1  0  0  0
  4  5  1  0  0  0
  4 10  1  0  0  0
  5  6  2  0  0  0
  5  9  1  0  0  0
  6  7  1  0  0  0
  7  8  3  0  0  0
 10 15  1  0  0  0
 11 12  2  0  0  0
 11 16  1  0  0  0
M  CHG  1   9  -1
M  END
> <s_m_entry_id>
772

> <s_m_entry_name>
dock_pv.11

> <s_m_Source_Path>
/home/csk/Desktop/cluster/DUD-E-result/comt/glide-dock_SP_comt_dude

> <s_m_Source_File>
glide-dock_SP_comt_dude_pv.maegz

> <i_m_Source_File_Index>
9

> <i_lp_mmshare_version>
53161

> <i_f3d_flags>
0

> <s_lp_Force_Field>
S-OPLS

> <r_lp_Energy>
21.305079

> <b_lp_Chiralities_Consistent>
1

> <s_lp_Variant>
281359-1

> <s_i_glide_gridfile>
glide-grid_3bwm

> <i_i_glide_lignum>
20

> <i_i_glide_rotatable_bonds>
2

> <r_i_docking_score>
-8.62651032028918

> <r_i_glide_ligand_efficiency>
-0.718875860024099

> <r_i_glide_ligand_efficiency_sa>
-1.64581486983149

> <r_i_glide_ligand_efficiency_ln>
-2.47539207996116

> <r_i_glide_gscore>
-8.63171032028918

> <r_i_glide_lipo>
-0.355610624264922

> <r_i_glide_hbond>
-0.188209942003222

> <r_i_glide_metal>
-2.3

> <r_i_glide_rewards>
-2.3

> <r_i_glide_evdw>
-10.6914024353027

> <r_i_glide_ecoul>
-19.6820659637451

> <r_i_glide_erotb>
0

> <r_i_glide_esite>
-0.00100973769413541

> <r_i_glide_emodel>
-70.0589051159038

> <r_i_glide_energy>
-30.3734683990479

> <r_i_glide_einternal>
1.21308612823486

> <i_i_glide_confnum>
1

> <i_i_glide_posenum>
154

> <r_i_glide_eff_state_penalty>
0.0052

> <i_f3d_flags>
0

> <s_epik_input>
Tz1bQ0hdYzFbY0hdYyhDI04pYyhbT0hdKWMoW2NIXTEpW09IXQ==

> <s_epik_cmdline>
J2VwaWtfcHl0aG9uJywgJy1waCcsICc3LjAnLCAnLXRuJywgJzgnLCAnLW1hJywgJzUwMCcsICctaW1hZScsICc8aW5maWxlLm1hZT4nLCAnLW9tYWUnLCAnPG91dGZpbGUubWFlPic=

> <r_epik_Ionization_Penalty>
  0.0063

> <r_epik_Ionization_Penalty_Charging>
  0.0058

> <r_epik_Ionization_Penalty_Neutral>
  0.0005

> <r_epik_State_Penalty>
  0.0052

> <r_epik_Charging_Adjusted_Penalty>
0.011015527278943

> <i_epik_Tot_Q>
-1

> <i_epik_Tot_abs_Q>
1

> <s_user_duplicate_titles>
281359,281359,281359,281359,281359

> <s_m_subgroup_title>
glide-dock_SP_comt_dude_pv

> <s_m_subgroupid>
glide-dock_SP_comt_dude_pv

> <b_m_subgroup_collapsed>
0

$$$$
280969
                    3D
 Schrodinger Suite 2021-1.
 17 17  0  0  1  0            999 V2000
   -3.5318  -12.1276  -18.7592 C   0  0  0  0  0  0
   -3.6831  -13.4546  -18.2995 C   0  0  0  0  0  0
   -4.2671  -13.6731  -17.0356 C   0  0  0  0  0  0
   -4.6721  -12.5897  -16.2398 C   0  0  0  0  0  0
   -4.4837  -11.2714  -16.6856 C   0  0  0  0  0  0
   -3.9277  -11.0189  -17.9742 C   0  0  0  0  0  0
   -3.7363   -9.6569  -18.5316 N   0  3  0  0  0  0
   -2.8541   -9.5046  -19.3752 O   0  5  0  0  0  0
   -4.4540   -8.7383  -18.1535 O   0  0  0  0  0  0
   -4.8540  -10.2860  -15.8230 O   0  5  0  0  0  0
   -5.2540  -12.8156  -15.0230 O   0  0  0  0  0  0
   -3.2540  -14.5947  -19.1310 N   0  3  0  0  0  0
   -3.2540  -15.7144  -18.6309 O   0  5  0  0  0  0
   -2.9210  -14.3764  -20.2906 O   0  0  0  0  0  0
   -3.1025  -11.9550  -19.7354 H   0  0  0  0  0  0
   -4.4256  -14.6795  -16.6729 H   0  0  0  0  0  0
   -5.7144  -13.6602  -15.0695 H   0  0  0  0  0  0
  1  6  1  0  0  0
  1  2  2  0  0  0
  1 15  1  0  0  0
  2  3  1  0  0  0
  2 12  1  0  0  0
  3  4  2  0  0  0
  3 16  1  0  0  0
  4  5  1  0  0  0
  4 11  1  0  0  0
  5  6  2  0  0  0
  5 10  1  0  0  0
  6  7  1  0  0  0
  7  8  1  0  0  0
  7  9  2  0  0  0
 11 17  1  0  0  0
 12 13  1  0  0  0
 12 14  2  0  0  0
M  CHG  5   7   1   8  -1  10  -1  12   1  13  -1
M  END
> <s_m_entry_id>
774

> <s_m_entry_name>
dock_pv.4

> <s_m_Source_Path>
/home/csk/Desktop/cluster/DUD-E-result/comt/glide-dock_SP_comt_dude

> <s_m_Source_File>
glide-dock_SP_comt_dude_pv.maegz

> <i_m_Source_File_Index>
11

> <i_lp_mmshare_version>
53161

> <i_f3d_flags>
0

> <s_lp_Force_Field>
S-OPLS

> <r_lp_Energy>
28.911901

> <b_lp_Chiralities_Consistent>
1

> <s_lp_Variant>
280969-1

> <s_i_glide_gridfile>
glide-grid_3bwm

> <i_i_glide_lignum>
5

> <i_i_glide_rotatable_bonds>
3

> <r_i_docking_score>
-8.60307352401253

> <r_i_glide_ligand_efficiency>
-0.614505251715181

> <r_i_glide_ligand_efficiency_sa>
-1.48104507741354

> <r_i_glide_ligand_efficiency_ln>
-2.36409397950378

> <r_i_glide_gscore>
-8.60517352401253

> <r_i_glide_lipo>
-0.339127516642232

> <r_i_glide_hbond>
-0.0351656288223444

> <r_i_glide_metal>
-2.3

> <r_i_glide_rewards>
-2.05160577272727

> <r_i_glide_evdw>
-20.1337223052979

> <r_i_glide_ecoul>
-18.9427509307861

> <r_i_glide_erotb>
0

> <r_i_glide_esite>
-0.0311758509378656

> <r_i_glide_emodel>
-83.2583105001583

> <r_i_glide_energy>
-39.076473236084

> <r_i_glide_einternal>
0.842318475246429

> <i_i_glide_confnum>
1

> <i_i_glide_posenum>
51

> <r_i_glide_eff_state_penalty>
0.0021

> <i_f3d_flags>
0

> <s_epik_input>
W08tXVtOK10oPU8pYzFbY0hdYyhbTitdKFtPLV0pPU8pYyhbT0hdKWMoW2NIXTEpW09IXQ==

> <s_epik_cmdline>
J2VwaWtfcHl0aG9uJywgJy1waCcsICc3LjAnLCAnLXRuJywgJzgnLCAnLW1hJywgJzUwMCcsICctaW1hZScsICc8aW5maWxlLm1hZT4nLCAnLW9tYWUnLCAnPG91dGZpbGUubWFlPic=

> <r_epik_Ionization_Penalty>
  0.0027

> <r_epik_Ionization_Penalty_Charging>
  0.0005

> <r_epik_Ionization_Penalty_Neutral>
  0.0023

> <r_epik_State_Penalty>
  0.0021

> <r_epik_Charging_Adjusted_Penalty>
0.00250151689821765

> <i_epik_Tot_Q>
-1

> <i_epik_Tot_abs_Q>
5

> <s_user_duplicate_titles>
280969,280969,280969

> <s_m_subgroup_title>
glide-dock_SP_comt_dude_pv

> <s_m_subgroupid>
glide-dock_SP_comt_dude_pv

> <b_m_subgroup_collapsed>
0

$$$$
281594
                    3D
 Schrodinger Suite 2021-1.
 20 20  0  0  1  0            999 V2000
   -2.8540  -13.9451  -20.6970 C   0  0  0  0  0  0
   -3.2540  -14.3196  -19.2722 C   0  0  0  0  0  0
   -3.1904  -15.5013  -18.9360 O   0  0  0  0  0  0
   -3.7398  -13.2315  -18.3784 C   0  0  0  0  0  0
   -3.7083  -11.8763  -18.7786 C   0  0  0  0  0  0
   -4.2062  -10.8519  -17.9434 C   0  0  0  0  0  0
   -4.7354  -11.2063  -16.6741 C   0  0  0  0  0  0
   -4.7498  -12.5462  -16.2559 C   0  0  0  0  0  0
   -4.2554  -13.5538  -17.1040 C   0  0  0  0  0  0
   -5.2540  -12.8617  -15.0230 O   0  0  0  0  0  0
   -5.2540  -10.2860  -15.8230 O   0  5  0  0  0  0
   -4.1422   -9.4555  -18.4244 N   0  3  0  0  0  0
   -5.0629   -8.6861  -18.1753 O   0  5  0  0  0  0
   -3.1580   -9.1361  -19.0863 O   0  0  0  0  0  0
   -2.0279  -13.2350  -20.6895 H   0  0  0  0  0  0
   -3.6972  -13.4978  -21.2235 H   0  0  0  0  0  0
   -2.5364  -14.8300  -21.2489 H   0  0  0  0  0  0
   -3.3165  -11.5983  -19.7454 H   0  0  0  0  0  0
   -4.2975  -14.5833  -16.7757 H   0  0  0  0  0  0
   -5.7021  -13.7115  -15.0969 H   0  0  0  0  0  0
  1  2  1  0  0  0
  1 15  1  0  0  0
  1 16  1  0  0  0
  1 17  1  0  0  0
  2  3  2  0  0  0
  2  4  1  0  0  0
  4  9  1  0  0  0
  4  5  2  0  0  0
  5  6  1  0  0  0
  5 18  1  0  0  0
  6  7  2  0  0  0
  6 12  1  0  0  0
  7  8  1  0  0  0
  7 11  1  0  0  0
  8  9  2  0  0  0
  8 10  1  0  0  0
  9 19  1  0  0  0
 10 20  1  0  0  0
 12 13  1  0  0  0
 12 14  2  0  0  0
M  CHG  3  11  -1  12   1  13  -1
M  END
> <s_m_entry_id>
775

> <s_m_entry_name>
dock_pv.2

> <s_m_Source_Path>
/home/csk/Desktop/cluster/DUD-E-result/comt/glide-dock_SP_comt_dude

> <s_m_Source_File>
glide-dock_SP_comt_dude_pv.maegz

> <i_m_Source_File_Index>
12

> <i_lp_mmshare_version>
53161

> <i_f3d_flags>
0

> <r_lp_tautomer_probability>
0.99995

> <s_lp_Force_Field>
S-OPLS

> <r_lp_Energy>
24.785357

> <b_lp_Chiralities_Consistent>
1

> <s_lp_Variant>
281594-1

> <s_i_glide_gridfile>
glide-grid_3bwm

> <i_i_glide_lignum>
1

> <i_i_glide_rotatable_bonds>
3

> <r_i_docking_score>
-8.586173736007

> <r_i_glide_ligand_efficiency>
-0.6132981240005

> <r_i_glide_ligand_efficiency_sa>
-1.47813572789269

> <r_i_glide_ligand_efficiency_ln>
-2.35944997791908

> <r_i_glide_gscore>
-8.595173736007

> <r_i_glide_lipo>
-0.429461072647194

> <r_i_glide_hbond>
-0.103294896154234

> <r_i_glide_metal>
-2.09938418150656

> <r_i_glide_rewards>
-2.07179359090909

> <r_i_glide_evdw>
-20.1203956604004

> <r_i_glide_ecoul>
-19.138635635376

> <r_i_glide_erotb>
0

> <r_i_glide_esite>
-0.0144248664635077

> <r_i_glide_emodel>
-83.1958367154944

> <r_i_glide_energy>
-39.2590312957764

> <r_i_glide_einternal>
1.49818885326385

> <i_i_glide_confnum>
1

> <i_i_glide_posenum>
7

> <r_i_glide_eff_state_penalty>
0.009

> <i_f3d_flags>
0

> <s_epik_input>
W0NIM11DKD1PKWMxW2NIXWMoW04rXShbTy1dKT1PKWMoW09IXSljKFtjSF0xKVtPSF0=

> <s_epik_cmdline>
J2VwaWtfcHl0aG9uJywgJy1waCcsICc3LjAnLCAnLXRuJywgJzgnLCAnLW1hJywgJzUwMCcsICctaW1hZScsICc8aW5maWxlLm1hZT4nLCAnLW9tYWUnLCAnPG91dGZpbGUubWFlPic=

> <r_epik_Ionization_Penalty>
  0.0102

> <r_epik_Ionization_Penalty_Charging>
  0.0096

> <r_epik_Ionization_Penalty_Neutral>
  0.0006

> <r_epik_State_Penalty>
  0.0090

> <r_epik_Charging_Adjusted_Penalty>
0.0186204114845907

> <i_epik_Tot_Q>
-1

> <i_epik_Tot_abs_Q>
3

> <s_user_duplicate_titles>
281594,281594,281594,281594

> <s_m_subgroup_title>
glide-dock_SP_comt_dude_pv

> <s_m_subgroupid>
glide-dock_SP_comt_dude_pv

> <b_m_subgroup_collapsed>
0

$$$$
281288
                    3D
 Schrodinger Suite 2021-1.
 15 15  0  0  1  0            999 V2000
   -3.5633  -12.1176  -18.7780 C   0  0  0  0  0  0
   -3.7315  -13.4355  -18.3182 C   0  0  0  0  0  0
   -4.3011  -13.6708  -17.0570 C   0  0  0  0  0  0
   -4.6874  -12.5894  -16.2476 C   0  0  0  0  0  0
   -4.4942  -11.2693  -16.6909 C   0  0  0  0  0  0
   -3.9433  -11.0115  -17.9821 C   0  0  0  0  0  0
   -3.7408   -9.6483  -18.5308 N   0  3  0  0  0  0
   -2.8540   -9.4978  -19.3702 O   0  5  0  0  0  0
   -4.4540   -8.7274  -18.1500 O   0  0  0  0  0  0
   -4.8552  -10.2860  -15.8230 O   0  5  0  0  0  0
   -5.2540  -12.8173  -15.0230 O   0  0  0  0  0  0
   -3.2540  -14.7649  -19.3084 Cl  0  0  0  0  0  0
   -3.1386  -11.9598  -19.7585 H   0  0  0  0  0  0
   -4.4540  -14.6848  -16.7148 H   0  0  0  0  0  0
   -5.7132  -13.6626  -15.0668 H   0  0  0  0  0  0
  1  6  1  0  0  0
  1  2  2  0  0  0
  1 13  1  0  0  0
  2  3  1  0  0  0
  2 12  1  0  0  0
  3  4  2  0  0  0
  3 14  1  0  0  0
  4  5  1  0  0  0
  4 11  1  0  0  0
  5  6  2  0  0  0
  5 10  1  0  0  0
  6  7  1  0  0  0
  7  8  1  0  0  0
  7  9  2  0  0  0
 11 15  1  0  0  0
M  CHG  3   7   1   8  -1  10  -1
M  END
> <s_m_entry_id>
777

> <s_m_entry_name>
dock_pv.9

> <s_m_Source_Path>
/home/csk/Desktop/cluster/DUD-E-result/comt/glide-dock_SP_comt_dude

> <s_m_Source_File>
glide-dock_SP_comt_dude_pv.maegz

> <i_m_Source_File_Index>
14

> <i_lp_mmshare_version>
53161

> <i_f3d_flags>
0

> <s_lp_Force_Field>
S-OPLS

> <r_lp_Energy>
25.656575

> <b_lp_Chiralities_Consistent>
1

> <s_lp_Variant>
281288-1

> <s_i_glide_gridfile>
glide-grid_3bwm

> <i_i_glide_lignum>
14

> <i_i_glide_rotatable_bonds>
2

> <r_i_docking_score>
-8.57776481513682

> <r_i_glide_ligand_efficiency>
-0.714813734594735

> <r_i_glide_ligand_efficiency_sa>
-1.63651492417113

> <r_i_glide_ligand_efficiency_ln>
-2.46140447281669

> <r_i_glide_gscore>
-8.69906481513681

> <r_i_glide_lipo>
-0.450853732922347

> <r_i_glide_hbond>
-0.0346396031929875

> <r_i_glide_metal>
-2.3

> <r_i_glide_rewards>
-2.12355668181818

> <r_i_glide_evdw>
-17.6081981658936

> <r_i_glide_ecoul>
-19.1883144378662

> <r_i_glide_erotb>
0

> <r_i_glide_esite>
-0.0313577232286905

> <r_i_glide_emodel>
-80.2460674442708

> <r_i_glide_energy>
-36.7965126037598

> <r_i_glide_einternal>
1.00358104705811

> <i_i_glide_confnum>
1

> <i_i_glide_posenum>
379

> <r_i_glide_eff_state_penalty>
0.1213

> <i_f3d_flags>
0

> <s_epik_input>
Q2xjMVtjSF1jKFtOK10oW08tXSk9TyljKFtPSF0pYyhbY0hdMSlbT0hd

> <s_epik_cmdline>
J2VwaWtfcHl0aG9uJywgJy1waCcsICc3LjAnLCAnLXRuJywgJzgnLCAnLW1hJywgJzUwMCcsICctaW1hZScsICc8aW5maWxlLm1hZT4nLCAnLW9tYWUnLCAnPG91dGZpbGUubWFlPic=

> <r_epik_Ionization_Penalty>
  0.1143

> <r_epik_Ionization_Penalty_Charging>
  0.1137

> <r_epik_Ionization_Penalty_Neutral>
  0.0006

> <r_epik_State_Penalty>
  0.1213

> <r_epik_Charging_Adjusted_Penalty>
0.235011694645079

> <i_epik_Tot_Q>
-1

> <i_epik_Tot_abs_Q>
3

> <s_user_duplicate_titles>
281288,281288,281288,281288,281288,281288,281288,281288

> <s_m_subgroup_title>
glide-dock_SP_comt_dude_pv

> <s_m_subgroupid>
glide-dock_SP_comt_dude_pv

> <b_m_subgroup_collapsed>
0

$$$$
280970
                    3D
 Schrodinger Suite 2021-1.
 18 18  0  0  1  0            999 V2000
   -3.6977  -11.7687  -18.7733 C   0  0  0  0  0  0
   -3.7548  -13.1199  -18.3642 C   0  0  0  0  0  0
   -4.2879  -13.4235  -17.0944 C   0  0  0  0  0  0
   -4.7632  -12.3945  -16.2615 C   0  0  0  0  0  0
   -4.7330  -11.0555  -16.6828 C   0  0  0  0  0  0
   -4.1763  -10.7235  -17.9470 C   0  0  0  0  0  0
   -4.0540   -9.3255  -18.4074 N   0  3  0  0  0  0
   -4.7381   -8.4637  -17.8640 O   0  5  0  0  0  0
   -3.2419   -9.0860  -19.2953 O   0  0  0  0  0  0
   -5.2540  -10.1261  -15.8230 O   0  0  0  0  0  0
   -5.2540  -12.6860  -15.0230 O   0  0  0  0  0  0
   -3.2540  -14.2148  -19.2685 C   0  0  0  0  0  0
   -2.8540  -13.9109  -20.4130 O   0  0  0  0  0  0
   -3.2540  -15.3964  -18.8569 O   0  5  0  0  0  0
   -3.2809  -11.5337  -19.7427 H   0  0  0  0  0  0
   -4.3405  -14.4509  -16.7599 H   0  0  0  0  0  0
   -5.4037   -9.2809  -16.2427 H   0  0  0  0  0  0
   -5.6498  -13.5644  -15.0598 H   0  0  0  0  0  0
  1  6  1  0  0  0
  1  2  2  0  0  0
  1 15  1  0  0  0
  2  3  1  0  0  0
  2 12  1  0  0  0
  3  4  2  0  0  0
  3 16  1  0  0  0
  4  5  1  0  0  0
  4 11  1  0  0  0
  5  6  2  0  0  0
  5 10  1  0  0  0
  6  7  1  0  0  0
  7  8  1  0  0  0
  7  9  2  0  0  0
 10 17  1  0  0  0
 11 18  1  0  0  0
 12 13  2  0  0  0
 12 14  1  0  0  0
M  CHG  3   7   1   8  -1  14  -1
M  END
> <s_m_entry_id>
779

> <s_m_entry_name>
dock_pv.8

> <s_m_Source_Path>
/home/csk/Desktop/cluster/DUD-E-result/comt/glide-dock_SP_comt_dude

> <s_m_Source_File>
glide-dock_SP_comt_dude_pv.maegz

> <i_m_Source_File_Index>
16

> <i_lp_mmshare_version>
53161

> <i_f3d_flags>
0

> <s_lp_Force_Field>
S-OPLS

> <r_lp_Energy>
22.428975

> <b_lp_Chiralities_Consistent>
1

> <s_lp_Variant>
280970-2

> <s_i_glide_gridfile>
glide-grid_3bwm

> <i_i_glide_lignum>
12

> <i_i_glide_rotatable_bonds>
4

> <r_i_docking_score>
-8.46934388929204

> <r_i_glide_ligand_efficiency>
-0.604953134949431

> <r_i_glide_ligand_efficiency_sa>
-1.45802311710432

> <r_i_glide_ligand_efficiency_ln>
-2.32734555192827

> <r_i_glide_gscore>
-8.97694388929204

> <r_i_glide_lipo>
-0.345512726540788

> <r_i_glide_hbond>
-0.016037240472117

> <r_i_glide_metal>
-2.3

> <r_i_glide_rewards>
-2.05834254545455

> <r_i_glide_evdw>
-20.0118141174316

> <r_i_glide_ecoul>
-21.5782718658447

> <r_i_glide_erotb>
0

> <r_i_glide_esite>
-0.0197198910762968

> <r_i_glide_emodel>
-78.9982768976485

> <r_i_glide_energy>
-41.5900859832764

> <r_i_glide_einternal>
1.11640810966492

> <i_i_glide_confnum>
1

> <i_i_glide_posenum>
396

> <r_i_glide_eff_state_penalty>
0.5076

> <i_f3d_flags>
0

> <s_epik_input>
Tz1DKFtPSF0pYzFbY0hdYyhbTitdKFtPLV0pPU8pYyhbT0hdKWMoW2NIXTEpW09IXQ==

> <s_epik_cmdline>
J2VwaWtfcHl0aG9uJywgJy1waCcsICc3LjAnLCAnLXRuJywgJzgnLCAnLW1hJywgJzUwMCcsICctaW1hZScsICc8aW5maWxlLm1hZT4nLCAnLW9tYWUnLCAnPG91dGZpbGUubWFlPic=

> <r_epik_Ionization_Penalty>
  0.5229

> <r_epik_Ionization_Penalty_Charging>
  0.0004

> <r_epik_Ionization_Penalty_Neutral>
  0.5225

> <r_epik_State_Penalty>
  0.5076

> <r_epik_Charging_Adjusted_Penalty>
0.508011558668795

> <i_epik_Tot_Q>
-1

> <i_epik_Tot_abs_Q>
3

> <s_user_duplicate_titles>
280970,280970,280970,280970,280970

> <s_m_subgroup_title>
glide-dock_SP_comt_dude_pv

> <s_m_subgroupid>
glide-dock_SP_comt_dude_pv

> <b_m_subgroup_collapsed>
0

$$$$
281559
                    3D
 Schrodinger Suite 2021-1.
 19 19  0  0  1  0            999 V2000
   -3.5045  -12.1498  -18.7476 C   0  0  0  0  0  0
   -3.6626  -13.4702  -18.2771 C   0  0  0  0  0  0
   -4.2599  -13.6816  -17.0230 C   0  0  0  0  0  0
   -4.6692  -12.5928  -16.2367 C   0  0  0  0  0  0
   -4.4795  -11.2754  -16.6851 C   0  0  0  0  0  0
   -3.9157  -11.0344  -17.9745 C   0  0  0  0  0  0
   -3.7320   -9.6763  -18.5436 N   0  3  0  0  0  0
   -4.4540   -8.7586  -18.1713 O   0  5  0  0  0  0
   -2.8540   -9.5264  -19.3920 O   0  0  0  0  0  0
   -4.8540  -10.2860  -15.8230 O   0  5  0  0  0  0
   -5.2540  -12.8157  -15.0230 O   0  0  0  0  0  0
   -3.1895  -14.6625  -19.0931 C   0  0  0  0  0  0
   -3.6540  -14.6570  -20.4265 O   0  0  0  0  0  0
   -3.0584  -11.9910  -19.7180 H   0  0  0  0  0  0
   -4.4153  -14.6860  -16.6563 H   0  0  0  0  0  0
   -5.7157  -13.6592  -15.0740 H   0  0  0  0  0  0
   -3.5196  -15.5896  -18.6225 H   0  0  0  0  0  0
   -2.0996  -14.6860  -19.0961 H   0  0  0  0  0  0
   -3.3198  -13.8860  -20.8597 H   0  0  0  0  0  0
  1  6  1  0  0  0
  1  2  2  0  0  0
  1 14  1  0  0  0
  2  3  1  0  0  0
  2 12  1  0  0  0
  3  4  2  0  0  0
  3 15  1  0  0  0
  4  5  1  0  0  0
  4 11  1  0  0  0
  5  6  2  0  0  0
  5 10  1  0  0  0
  6  7  1  0  0  0
  7  8  1  0  0  0
  7  9  2  0  0  0
 11 16  1  0  0  0
 12 13  1  0  0  0
 12 17  1  0  0  0
 12 18  1  0  0  0
 13 19  1  0  0  0
M  CHG  3   7   1   8  -1  10  -1
M  END
> <s_m_entry_id>
780

> <s_m_entry_name>
dock_pv.5

> <s_m_Source_Path>
/home/csk/Desktop/cluster/DUD-E-result/comt/glide-dock_SP_comt_dude

> <s_m_Source_File>
glide-dock_SP_comt_dude_pv.maegz

> <i_m_Source_File_Index>
17

> <i_lp_mmshare_version>
53161

> <i_f3d_flags>
0

> <s_lp_Force_Field>
S-OPLS

> <r_lp_Energy>
27.474936

> <b_lp_Chiralities_Consistent>
1

> <s_lp_Variant>
281559-1

> <s_i_glide_gridfile>
glide-grid_3bwm

> <i_i_glide_lignum>
6

> <i_i_glide_rotatable_bonds>
4

> <r_i_docking_score>
-8.4408075433981

> <r_i_glide_ligand_efficiency>
-0.6492928879537

> <r_i_glide_ligand_efficiency_sa>
-1.52670488863062

> <r_i_glide_ligand_efficiency_ln>
-2.36772158508543

> <r_i_glide_gscore>
-8.7855075433981

> <r_i_glide_lipo>
-0.502677323631701

> <r_i_glide_hbond>
-0.273431964715515

> <r_i_glide_metal>
-2.3

> <r_i_glide_rewards>
-2.15368472727273

> <r_i_glide_evdw>
-17.8063297271729

> <r_i_glide_ecoul>
-20.6869697570801

> <r_i_glide_erotb>
0.468316064637621

> <r_i_glide_esite>
-0.0306676424951241

> <r_i_glide_emodel>
-83.1010023728686

> <r_i_glide_energy>
-38.4932994842529

> <r_i_glide_einternal>
1.1070009469986

> <i_i_glide_confnum>
1

> <i_i_glide_posenum>
365

> <r_i_glide_eff_state_penalty>
0.3447

> <i_f3d_flags>
0

> <s_epik_input>
W09IXVtDSDJdYzFbY0hdYyhbTitdKFtPLV0pPU8pYyhbT0hdKWMoW2NIXTEpW09IXQ==

> <s_epik_cmdline>
J2VwaWtfcHl0aG9uJywgJy1waCcsICc3LjAnLCAnLXRuJywgJzgnLCAnLW1hJywgJzUwMCcsICctaW1hZScsICc8aW5maWxlLm1hZT4nLCAnLW9tYWUnLCAnPG91dGZpbGUubWFlPic=

> <r_epik_Ionization_Penalty>
  0.3411

> <r_epik_Ionization_Penalty_Charging>
  0.3410

> <r_epik_Ionization_Penalty_Neutral>
  0.0001

> <r_epik_State_Penalty>
  0.3447

> <r_epik_Charging_Adjusted_Penalty>
0.685678398822191

> <i_epik_Tot_Q>
-1

> <i_epik_Tot_abs_Q>
3

> <s_user_duplicate_titles>
281559,281559,281559,281559,281559,281559,281559,281559,281559,281559

> <s_m_subgroup_title>
glide-dock_SP_comt_dude_pv

> <s_m_subgroupid>
glide-dock_SP_comt_dude_pv

> <b_m_subgroup_collapsed>
0

$$$$
98413
                    3D
 Schrodinger Suite 2021-1.
 43 44  0  0  1  0            999 V2000
   -3.6518  -12.8513  -18.4121 C   0  0  0  0  0  0
   -4.2181  -13.2594  -17.1865 C   0  0  0  0  0  0
   -4.7433  -12.3024  -16.2973 C   0  0  0  0  0  0
   -4.7242  -10.9423  -16.6604 C   0  0  0  0  0  0
   -4.1608  -10.5304  -17.8792 C   0  0  0  0  0  0
   -3.6119  -11.4799  -18.7636 C   0  0  0  0  0  0
   -2.9706  -11.0059  -20.0358 C   0  0  0  0  0  0
   -2.4548   -9.8876  -20.1017 O   0  0  0  0  0  0
   -3.0804  -11.8379  -21.0815 N   0  0  0  0  0  0
   -2.7250  -11.5202  -22.4613 C   0  0  0  0  0  0
   -3.9870  -11.2408  -23.2948 C   0  0  0  0  0  0
   -4.7117   -9.9411  -22.8996 C   0  0  0  0  0  0
   -6.0492   -9.8860  -23.4649 N   0  0  0  0  0  0
   -6.3709   -9.4938  -24.7060 C   0  0  0  0  0  0
   -5.5483   -9.1069  -25.5348 O   0  0  0  0  0  0
   -7.8429   -9.4962  -25.0013 C   0  0  0  0  0  0
   -8.3918   -8.5772  -25.9220 C   0  0  0  0  0  0
   -9.7762   -8.5770  -26.1880 C   0  0  0  0  0  0
  -10.6313   -9.4882  -25.5360 C   0  0  0  0  0  0
  -10.0813  -10.4170  -24.6230 C   0  0  0  0  0  0
   -8.6979  -10.4307  -24.3761 C   0  0  0  0  0  0
  -10.8540  -11.3171  -23.9537 O   0  0  0  0  0  0
  -11.9698   -9.4545  -25.8230 O   0  0  0  0  0  0
   -5.2546  -10.0158  -15.8230 O   0  0  0  0  0  0
   -5.2540  -12.6860  -15.0842 O   0  0  0  0  0  0
   -3.2289  -13.6015  -19.0643 H   0  0  0  0  0  0
   -4.2366  -14.3082  -16.9252 H   0  0  0  0  0  0
   -4.1471   -9.4805  -18.1377 H   0  0  0  0  0  0
   -3.5399  -12.7222  -20.9249 H   0  0  0  0  0  0
   -2.1974  -12.3793  -22.8762 H   0  0  0  0  0  0
   -2.0326  -10.6784  -22.5189 H   0  0  0  0  0  0
   -4.6681  -12.0879  -23.1999 H   0  0  0  0  0  0
   -3.7173  -11.1895  -24.3505 H   0  0  0  0  0  0
   -4.1287   -9.0659  -23.1914 H   0  0  0  0  0  0
   -4.8394   -9.8837  -21.8200 H   0  0  0  0  0  0
   -6.8076  -10.1352  -22.8457 H   0  0  0  0  0  0
   -7.7548   -7.8621  -26.4231 H   0  0  0  0  0  0
  -10.1858   -7.8669  -26.8914 H   0  0  0  0  0  0
   -8.3068  -11.1597  -23.6813 H   0  0  0  0  0  0
  -11.7855  -11.0860  -23.9477 H   0  0  0  0  0  0
  -12.5589   -9.8871  -25.2115 H   0  0  0  0  0  0
   -5.4234   -9.1730  -16.2314 H   0  0  0  0  0  0
   -5.6437  -13.5643  -15.1673 H   0  0  0  0  0  0
  1  6  1  0  0  0
  1  2  2  0  0  0
  1 26  1  0  0  0
  2  3  1  0  0  0
  2 27  1  0  0  0
  3  4  2  0  0  0
  3 25  1  0  0  0
  4  5  1  0  0  0
  4 24  1  0  0  0
  5  6  2  0  0  0
  5 28  1  0  0  0
  6  7  1  0  0  0
  7  8  2  0  0  0
  7  9  1  0  0  0
  9 10  1  0  0  0
  9 29  1  0  0  0
 10 11  1  0  0  0
 10 30  1  0  0  0
 10 31  1  0  0  0
 11 12  1  0  0  0
 11 32  1  0  0  0
 11 33  1  0  0  0
 12 13  1  0  0  0
 12 34  1  0  0  0
 12 35  1  0  0  0
 13 14  1  0  0  0
 13 36  1  0  0  0
 14 15  2  0  0  0
 14 16  1  0  0  0
 16 21  1  0  0  0
 16 17  2  0  0  0
 17 18  1  0  0  0
 17 37  1  0  0  0
 18 19  2  0  0  0
 18 38  1  0  0  0
 19 20  1  0  0  0
 19 23  1  0  0  0
 20 21  2  0  0  0
 20 22  1  0  0  0
 21 39  1  0  0  0
 22 40  1  0  0  0
 23 41  1  0  0  0
 24 42  1  0  0  0
 25 43  1  0  0  0
M  END
> <s_m_entry_id>
787

> <s_m_entry_name>
dock_pv.14

> <s_m_Source_Path>
/home/csk/Desktop/cluster/DUD-E-result/comt/glide-dock_SP_comt_dude

> <s_m_Source_File>
glide-dock_SP_comt_dude_pv.maegz

> <i_m_Source_File_Index>
24

> <i_lp_mmshare_version>
53161

> <i_f3d_flags>
0

> <r_lp_tautomer_probability>
0.999999999999552

> <s_lp_Force_Field>
S-OPLS

> <r_lp_Energy>
25.869018

> <b_lp_Chiralities_Consistent>
1

> <s_lp_Variant>
98413-1

> <s_i_glide_gridfile>
glide-grid_3bwm

> <i_i_glide_lignum>
27

> <i_i_glide_rotatable_bonds>
12

> <r_i_docking_score>
-8.20678696744639

> <r_i_glide_ligand_efficiency>
-0.328271478697856

> <r_i_glide_ligand_efficiency_sa>
-0.959871625631994

> <r_i_glide_ligand_efficiency_ln>
-1.94525444884427

> <r_i_glide_gscore>
-8.22308696744639

> <r_i_glide_lipo>
-0.454550532301277

> <r_i_glide_hbond>
-0.32

> <r_i_glide_metal>
-2.3

> <r_i_glide_rewards>
-1.08891831670519

> <r_i_glide_evdw>
-26.5512142181396

> <r_i_glide_ecoul>
-29.2689113616943

> <r_i_glide_erotb>
1.26794259246706

> <r_i_glide_esite>
0

> <r_i_glide_emodel>
-94.1457685555868

> <r_i_glide_energy>
-55.820125579834

> <r_i_glide_einternal>
6.13519906997681

> <i_i_glide_confnum>
116

> <i_i_glide_posenum>
33

> <r_i_glide_eff_state_penalty>
0.0163

> <i_f3d_flags>
0

> <s_epik_input>
W09IXWMxW2NIXVtjSF1jKFtjSF1jMVtPSF0pQyg9TylbTkhdW0NIMl1bQ0gyXVtDSDJdW05IXUMoPU8pYzJbY0hdW2NIXWMoW09IXSljKFtjSF0yKVtPSF0=

> <s_epik_cmdline>
J2VwaWtfcHl0aG9uJywgJy1waCcsICc3LjAnLCAnLXRuJywgJzgnLCAnLW1hJywgJzUwMCcsICctaW1hZScsICc8aW5maWxlLm1hZT4nLCAnLW9tYWUnLCAnPG91dGZpbGUubWFlPic=

> <r_epik_Ionization_Penalty>
  0.0214

> <r_epik_Ionization_Penalty_Charging>
  0.0000

> <r_epik_Ionization_Penalty_Neutral>
  0.0214

> <r_epik_State_Penalty>
  0.0163

> <r_epik_Charging_Adjusted_Penalty>
0.0163145618936681

> <i_epik_Tot_Q>
0

> <i_epik_Tot_abs_Q>
0

> <s_user_duplicate_titles>
98413,98413,98413,98413,98413

> <s_m_subgroup_title>
glide-dock_SP_comt_dude_pv

> <s_m_subgroupid>
glide-dock_SP_comt_dude_pv

> <b_m_subgroup_collapsed>
0

$$$$
280359
                    3D
 Schrodinger Suite 2021-1.
 30 30  0  0  1  0            999 V2000
   -4.2324  -10.8172  -18.5704 C   0  0  0  0  0  0
   -4.8159  -10.0471  -17.5449 C   0  0  0  0  0  0
   -5.2542  -10.6852  -16.3727 C   0  0  0  0  0  0
   -5.1006  -12.0832  -16.2221 C   0  0  0  0  0  0
   -4.5455  -12.8587  -17.2648 C   0  0  0  0  0  0
   -4.0933  -12.2232  -18.4573 C   0  0  0  0  0  0
   -3.4840  -12.9679  -19.5857 N   0  3  0  0  0  0
   -2.8347  -12.3245  -20.4039 O   0  5  0  0  0  0
   -3.6523  -14.1786  -19.6825 O   0  0  0  0  0  0
   -4.4518  -14.2128  -17.0782 O   0  0  0  0  0  0
   -5.4660  -12.6859  -15.0435 O   0  0  0  0  0  0
   -4.9755   -8.5403  -17.7071 C   0  0  0  0  0  0
   -6.4432   -8.0942  -17.8370 C   0  0  0  0  0  0
   -6.6030   -6.5993  -18.1793 C   0  0  0  0  0  0
   -7.7328   -6.3086  -19.1905 C   0  0  0  0  0  0
   -7.6911   -4.8739  -19.7369 C   0  0  0  0  0  0
   -7.0192   -4.0194  -19.1141 O   0  0  0  0  0  0
   -8.3269   -4.6653  -20.7951 O   0  5  0  0  0  0
   -3.9081  -10.3177  -19.4720 H   0  0  0  0  0  0
   -5.7429  -10.0686  -15.6332 H   0  0  0  0  0  0
   -5.1962  -14.6163  -16.6265 H   0  0  0  0  0  0
   -5.8021  -13.5776  -15.1898 H   0  0  0  0  0  0
   -4.4291   -8.2313  -18.6006 H   0  0  0  0  0  0
   -4.5065   -8.0318  -16.8639 H   0  0  0  0  0  0
   -6.9996   -8.3238  -16.9278 H   0  0  0  0  0  0
   -6.9033   -8.6860  -18.6197 H   0  0  0  0  0  0
   -5.6624   -6.2128  -18.5752 H   0  0  0  0  0  0
   -6.8105   -6.0444  -17.2633 H   0  0  0  0  0  0
   -8.7074   -6.4887  -18.7367 H   0  0  0  0  0  0
   -7.6485   -6.9831  -20.0422 H   0  0  0  0  0  0
  1  6  1  0  0  0
  1  2  2  0  0  0
  1 19  1  0  0  0
  2  3  1  0  0  0
  2 12  1  0  0  0
  3  4  2  0  0  0
  3 20  1  0  0  0
  4  5  1  0  0  0
  4 11  1  0  0  0
  5  6  2  0  0  0
  5 10  1  0  0  0
  6  7  1  0  0  0
  7  8  1  0  0  0
  7  9  2  0  0  0
 10 21  1  0  0  0
 11 22  1  0  0  0
 12 13  1  0  0  0
 12 23  1  0  0  0
 12 24  1  0  0  0
 13 14  1  0  0  0
 13 25  1  0  0  0
 13 26  1  0  0  0
 14 15  1  0  0  0
 14 27  1  0  0  0
 14 28  1  0  0  0
 15 16  1  0  0  0
 15 29  1  0  0  0
 15 30  1  0  0  0
 16 17  2  0  0  0
 16 18  1  0  0  0
M  CHG  3   7   1   8  -1  18  -1
M  END
> <s_m_entry_id>
806

> <s_m_entry_name>
dock_pv.16

> <s_m_Source_Path>
/home/csk/Desktop/cluster/DUD-E-result/comt/glide-dock_SP_comt_dude

> <s_m_Source_File>
glide-dock_SP_comt_dude_pv.maegz

> <i_m_Source_File_Index>
43

> <i_lp_mmshare_version>
53161

> <i_f3d_flags>
0

> <r_lp_tautomer_probability>
0.999999999999776

> <s_lp_Force_Field>
S-OPLS

> <r_lp_Energy>
20.154888

> <b_lp_Chiralities_Consistent>
1

> <s_lp_Variant>
280359-1

> <s_i_glide_gridfile>
glide-grid_3bwm

> <i_i_glide_lignum>
32

> <i_i_glide_rotatable_bonds>
8

> <r_i_docking_score>
-7.81471679910154

> <r_i_glide_ligand_efficiency>
-0.434150933283419

> <r_i_glide_ligand_efficiency_sa>
-1.13779732109406

> <r_i_glide_ligand_efficiency_ln>
-2.00873265729432

> <r_i_glide_gscore>
-8.08991679910154

> <r_i_glide_lipo>
-1.08871054286029

> <r_i_glide_hbond>
0

> <r_i_glide_metal>
-2.3

> <r_i_glide_rewards>
-1.67579945454546

> <r_i_glide_evdw>
-25.824836730957

> <r_i_glide_ecoul>
-18.816535949707

> <r_i_glide_erotb>
1.08831542730811

> <r_i_glide_esite>
0

> <r_i_glide_emodel>
-72.5011746411369

> <r_i_glide_energy>
-44.6413726806641

> <r_i_glide_einternal>
9.32510471343994

> <i_i_glide_confnum>
91

> <i_i_glide_posenum>
8

> <r_i_glide_eff_state_penalty>
0.2752

> <i_f3d_flags>
0

> <s_epik_input>
W2NIXTFjKFtPSF0pYyhbT0hdKWMoW04rXShbTy1dKT1PKVtjSF1jMVtDSDJdW0NIMl1bQ0gyXVtDSDJdQyg9TylbT0hd

> <s_epik_cmdline>
J2VwaWtfcHl0aG9uJywgJy1waCcsICc3LjAnLCAnLXRuJywgJzgnLCAnLW1hJywgJzUwMCcsICctaW1hZScsICc8aW5maWxlLm1hZT4nLCAnLW9tYWUnLCAnPG91dGZpbGUubWFlPic=

> <r_epik_Ionization_Penalty>
  0.2949

> <r_epik_Ionization_Penalty_Charging>
  0.0044

> <r_epik_Ionization_Penalty_Neutral>
  0.2905

> <r_epik_State_Penalty>
  0.2752

> <r_epik_Charging_Adjusted_Penalty>
0.279621824942035

> <i_epik_Tot_Q>
-1

> <i_epik_Tot_abs_Q>
3

> <s_user_duplicate_titles>
280359,280359,280359,280359,280359,280359,280359,280359,280359,280359

> <s_m_subgroup_title>
glide-dock_SP_comt_dude_pv

> <s_m_subgroupid>
glide-dock_SP_comt_dude_pv

> <b_m_subgroup_collapsed>
0

$$$$
280846
                    3D
 Schrodinger Suite 2021-1.
 28 28  0  0  1  0            999 V2000
   -3.5935  -13.3867  -21.4572 C   0  0  0  0  0  0
   -2.9053  -14.2843  -20.4352 C   0  0  0  0  0  0
   -3.0102  -14.1606  -19.0914 C   0  0  0  0  0  0
   -3.6540  -13.0914  -18.3104 C   0  0  0  0  0  0
   -3.6335  -11.7464  -18.7334 C   0  0  0  0  0  0
   -4.1646  -10.7090  -17.9338 C   0  0  0  0  0  0
   -4.7343  -11.0448  -16.6783 C   0  0  0  0  0  0
   -4.7562  -12.3841  -16.2549 C   0  0  0  0  0  0
   -4.2360  -13.4048  -17.0689 C   0  0  0  0  0  0
   -5.2542  -12.6860  -15.0230 O   0  0  0  0  0  0
   -5.2540  -10.1144  -15.8230 O   0  0  0  0  0  0
   -4.0540   -9.3145  -18.4043 N   0  3  0  0  0  0
   -4.7334   -8.4499  -17.8604 O   0  5  0  0  0  0
   -3.2540   -9.0860  -19.3059 O   0  0  0  0  0  0
   -2.0540  -15.3746  -20.9741 C   0  0  0  0  0  0
   -1.6397  -16.3019  -20.2793 O   0  0  0  0  0  0
   -1.6540  -15.3548  -22.4473 C   0  0  0  0  0  0
   -2.8964  -12.6475  -21.8528 H   0  0  0  0  0  0
   -3.9880  -13.9687  -22.2908 H   0  0  0  0  0  0
   -4.4470  -12.8643  -21.0266 H   0  0  0  0  0  0
   -2.5168  -14.8980  -18.4729 H   0  0  0  0  0  0
   -3.1546  -11.4973  -19.6680 H   0  0  0  0  0  0
   -4.2574  -14.4292  -16.7231 H   0  0  0  0  0  0
   -5.6540  -13.5625  -15.0604 H   0  0  0  0  0  0
   -5.4013   -9.2670  -16.2395 H   0  0  0  0  0  0
   -1.3180  -14.3611  -22.7434 H   0  0  0  0  0  0
   -2.4976  -15.6436  -23.0741 H   0  0  0  0  0  0
   -0.8397  -16.0568  -22.6278 H   0  0  0  0  0  0
  1  2  1  0  0  0
  1 18  1  0  0  0
  1 19  1  0  0  0
  1 20  1  0  0  0
  2  3  2  0  0  0
  2 15  1  0  0  0
  3  4  1  0  0  0
  3 21  1  0  0  0
  4  9  1  0  0  0
  4  5  2  0  0  0
  5  6  1  0  0  0
  5 22  1  0  0  0
  6  7  2  0  0  0
  6 12  1  0  0  0
  7  8  1  0  0  0
  7 11  1  0  0  0
  8  9  2  0  0  0
  8 10  1  0  0  0
  9 23  1  0  0  0
 10 24  1  0  0  0
 11 25  1  0  0  0
 12 13  1  0  0  0
 12 14  2  0  0  0
 15 16  2  0  0  0
 15 17  1  0  0  0
 17 26  1  0  0  0
 17 27  1  0  0  0
 17 28  1  0  0  0
M  CHG  2  12   1  13  -1
M  END
> <s_m_entry_id>
810

> <s_m_entry_name>
dock_pv.12

> <s_m_Source_Path>
/home/csk/Desktop/cluster/DUD-E-result/comt/glide-dock_SP_comt_dude

> <s_m_Source_File>
glide-dock_SP_comt_dude_pv.maegz

> <i_m_Source_File_Index>
47

> <i_lp_mmshare_version>
53161

> <i_f3d_flags>
0

> <s_lp_Force_Field>
S-OPLS

> <r_lp_Energy>
19.794381

> <b_lp_Chiralities_Consistent>
1

> <s_lp_Variant>
280846-1

> <s_i_glide_gridfile>
glide-grid_3bwm

> <i_i_glide_lignum>
21

> <i_i_glide_rotatable_bonds>
5

> <r_i_docking_score>
-7.75957391544744

> <r_i_glide_ligand_efficiency>
-0.456445524438085

> <r_i_glide_ligand_efficiency_sa>
-1.17364997301759

> <r_i_glide_ligand_efficiency_ln>
-2.02430003732493

> <r_i_glide_gscore>
-8.14207391544744

> <r_i_glide_lipo>
-0.641543972089565

> <r_i_glide_hbond>
-0.0204325935933646

> <r_i_glide_metal>
-2.3

> <r_i_glide_rewards>
-1.79175859090909

> <r_i_glide_evdw>
-22.7415237426758

> <r_i_glide_ecoul>
-18.9056301116943

> <r_i_glide_erotb>
0.612585299957822

> <r_i_glide_esite>
-0.028003354925299

> <r_i_glide_emodel>
-68.5621046234159

> <r_i_glide_energy>
-41.6471538543701

> <r_i_glide_einternal>
5.11864900588989

> <i_i_glide_confnum>
8

> <i_i_glide_posenum>
379

> <r_i_glide_eff_state_penalty>
0.3825

> <i_f3d_flags>
0

> <s_epik_input>
Tz1DKFtDSDNdKUMoXFtDSDNdKT1bQ0hdXGMxW2NIXWMoW04rXShbTy1dKT1PKWMoW09IXSljKFtjSF0xKVtPSF0=

> <s_epik_cmdline>
J2VwaWtfcHl0aG9uJywgJy1waCcsICc3LjAnLCAnLXRuJywgJzgnLCAnLW1hJywgJzUwMCcsICctaW1hZScsICc8aW5maWxlLm1hZT4nLCAnLW9tYWUnLCAnPG91dGZpbGUubWFlPic=

> <r_epik_Ionization_Penalty>
  0.4115

> <r_epik_Ionization_Penalty_Charging>
  0.0000

> <r_epik_Ionization_Penalty_Neutral>
  0.4115

> <r_epik_State_Penalty>
  0.3825

> <r_epik_Charging_Adjusted_Penalty>
0.382535079932922

> <i_epik_Tot_Q>
0

> <i_epik_Tot_abs_Q>
2

> <s_user_duplicate_titles>
280846,280846,280846,280846,280846,280846,280846,280846,280846

> <s_m_subgroup_title>
glide-dock_SP_comt_dude_pv

> <s_m_subgroupid>
glide-dock_SP_comt_dude_pv

> <b_m_subgroup_collapsed>
0

$$$$
280358
                    3D
 Schrodinger Suite 2021-1.
 21 21  0  0  1  0            999 V2000
   -3.5501  -11.8661  -18.6953 C   0  0  0  0  0  0
   -3.5264  -13.2121  -18.2667 C   0  0  0  0  0  0
   -4.1306  -13.5407  -17.0373 C   0  0  0  0  0  0
   -4.7082  -12.5420  -16.2342 C   0  0  0  0  0  0
   -4.7072  -11.2046  -16.6594 C   0  0  0  0  0  0
   -4.1384  -10.8497  -17.9109 C   0  0  0  0  0  0
   -4.1009   -9.4584  -18.4108 N   0  3  0  0  0  0
   -5.0454   -8.7098  -18.1886 O   0  5  0  0  0  0
   -3.1131   -9.1207  -19.0581 O   0  0  0  0  0  0
   -5.2540  -10.2860  -15.8230 O   0  5  0  0  0  0
   -5.2540  -12.8622  -15.0230 O   0  0  0  0  0  0
   -2.8556  -14.2853  -19.0271 C   0  0  0  0  0  0
   -2.6171  -14.3778  -20.3520 C   0  0  0  0  0  0
   -3.1102  -13.4197  -21.2830 C   0  0  0  0  0  0
   -3.5113  -12.6631  -22.0611 N   0  0  0  0  0  0
   -1.8454  -15.4860  -20.7998 C   0  0  0  0  0  0
   -1.2021  -16.3873  -21.1315 N   0  0  0  0  0  0
   -3.0745  -11.5795  -19.6189 H   0  0  0  0  0  0
   -4.1387  -14.5649  -16.6923 H   0  0  0  0  0  0
   -5.7088  -13.7073  -15.1116 H   0  0  0  0  0  0
   -2.4695  -15.0858  -18.4112 H   0  0  0  0  0  0
  1  6  1  0  0  0
  1  2  2  0  0  0
  1 18  1  0  0  0
  2  3  1  0  0  0
  2 12  1  0  0  0
  3  4  2  0  0  0
  3 19  1  0  0  0
  4  5  1  0  0  0
  4 11  1  0  0  0
  5  6  2  0  0  0
  5 10  1  0  0  0
  6  7  1  0  0  0
  7  8  1  0  0  0
  7  9  2  0  0  0
 11 20  1  0  0  0
 12 13  2  3  0  0
 12 21  1  0  0  0
 13 14  1  0  0  0
 13 16  1  0  0  0
 14 15  3  0  0  0
 16 17  3  0  0  0
M  CHG  3   7   1   8  -1  10  -1
M  END
> <s_m_entry_id>
813

> <s_m_entry_name>
dock_pv.10

> <s_m_Source_Path>
/home/csk/Desktop/cluster/DUD-E-result/comt/glide-dock_SP_comt_dude

> <s_m_Source_File>
glide-dock_SP_comt_dude_pv.maegz

> <i_m_Source_File_Index>
50

> <i_lp_mmshare_version>
53161

> <i_f3d_flags>
0

> <s_lp_Force_Field>
S-OPLS

> <r_lp_Energy>
25.741776

> <b_lp_Chiralities_Consistent>
1

> <s_lp_Variant>
280358-1

> <s_i_glide_gridfile>
glide-grid_3bwm

> <i_i_glide_lignum>
17

> <i_i_glide_rotatable_bonds>
3

> <r_i_docking_score>
-7.60511082625178

> <r_i_glide_ligand_efficiency>
-0.447359460367752

> <r_i_glide_ligand_efficiency_sa>
-1.15028714376407

> <r_i_glide_ligand_efficiency_ln>
-1.98400405707767

> <r_i_glide_gscore>
-7.62721082625178

> <r_i_glide_lipo>
-0.590488129066059

> <r_i_glide_hbond>
0

> <r_i_glide_metal>
-2.09698291691648

> <r_i_glide_rewards>
-1.83984231818182

> <r_i_glide_evdw>
-19.6616916656494

> <r_i_glide_ecoul>
-16.1258316040039

> <r_i_glide_erotb>
0.322420848041223

> <r_i_glide_esite>
-0.0203589862455923

> <r_i_glide_emodel>
-72.9594526612742

> <r_i_glide_energy>
-35.7875232696533

> <r_i_glide_einternal>
1.64146327972412

> <i_i_glide_confnum>
1

> <i_i_glide_posenum>
316

> <r_i_glide_eff_state_penalty>
0.0221

> <i_f3d_flags>
0

> <s_epik_input>
W2NIXTFjKFtPSF0pYyhbT0hdKWMoW04rXShbTy1dKT1PKVtjSF1jMVtDSF09QyhDI04pQyNO

> <s_epik_cmdline>
J2VwaWtfcHl0aG9uJywgJy1waCcsICc3LjAnLCAnLXRuJywgJzgnLCAnLW1hJywgJzUwMCcsICctaW1hZScsICc8aW5maWxlLm1hZT4nLCAnLW9tYWUnLCAnPG91dGZpbGUubWFlPic=

> <r_epik_Ionization_Penalty>
  0.0198

> <r_epik_Ionization_Penalty_Charging>
  0.0183

> <r_epik_Ionization_Penalty_Neutral>
  0.0014

> <r_epik_State_Penalty>
  0.0221

> <r_epik_Charging_Adjusted_Penalty>
0.0404276502223489

> <i_epik_Tot_Q>
-1

> <i_epik_Tot_abs_Q>
3

> <s_user_duplicate_titles>
280358

> <s_m_subgroup_title>
glide-dock_SP_comt_dude_pv

> <s_m_subgroupid>
glide-dock_SP_comt_dude_pv

> <b_m_subgroup_collapsed>
0

$$$$
331808
                    3D
 Schrodinger Suite 2021-1.
 30 31  0  0  1  0            999 V2000
   -3.9099  -10.3612  -25.2376 C   0  0  0  0  0  0
   -3.3883  -11.6385  -24.9534 C   0  0  0  0  0  0
   -3.6074  -12.2254  -23.6916 C   0  0  0  0  0  0
   -4.3485  -11.5347  -22.7098 C   0  0  0  0  0  0
   -4.8731  -10.2582  -22.9996 C   0  0  0  0  0  0
   -4.6525   -9.6710  -24.2602 C   0  0  0  0  0  0
   -4.5828  -12.1587  -21.3460 C   0  0  0  0  0  0
   -3.5471  -11.7360  -20.2982 C   0  0  0  0  0  0
   -2.4540  -11.2744  -20.6258 O   0  0  0  0  0  0
   -3.9557  -11.9558  -18.8925 C   0  0  0  0  0  0
   -3.9721  -13.2906  -18.4392 C   0  0  0  0  0  0
   -4.3983  -13.5948  -17.1380 C   0  0  0  0  0  0
   -4.8068  -12.5660  -16.2769 C   0  0  0  0  0  0
   -4.7686  -11.2308  -16.7039 C   0  0  0  0  0  0
   -4.3279  -10.8968  -18.0135 C   0  0  0  0  0  0
   -4.2764   -9.4817  -18.4443 N   0  3  0  0  0  0
   -3.2540   -9.0860  -18.9945 O   0  5  0  0  0  0
   -5.2447   -8.7624  -18.2230 O   0  0  0  0  0  0
   -5.1900  -10.2860  -15.8230 O   0  5  0  0  0  0
   -5.2540  -12.8621  -15.0230 O   0  0  0  0  0  0
   -3.7395   -9.9105  -26.2042 H   0  0  0  0  0  0
   -2.8173  -12.1670  -25.7026 H   0  0  0  0  0  0
   -3.1998  -13.2028  -23.4783 H   0  0  0  0  0  0
   -5.4416   -9.7226  -22.2525 H   0  0  0  0  0  0
   -5.0513   -8.6903  -24.4750 H   0  0  0  0  0  0
   -4.5669  -13.2445  -21.4386 H   0  0  0  0  0  0
   -5.5783  -11.8861  -20.9942 H   0  0  0  0  0  0
   -3.6744  -14.0965  -19.0947 H   0  0  0  0  0  0
   -4.4363  -14.6238  -16.8091 H   0  0  0  0  0  0
   -5.6987  -13.7150  -15.0704 H   0  0  0  0  0  0
  1  6  1  0  0  0
  1  2  2  0  0  0
  1 21  1  0  0  0
  2  3  1  0  0  0
  2 22  1  0  0  0
  3  4  2  0  0  0
  3 23  1  0  0  0
  4  5  1  0  0  0
  4  7  1  0  0  0
  5  6  2  0  0  0
  5 24  1  0  0  0
  6 25  1  0  0  0
  7  8  1  0  0  0
  7 26  1  0  0  0
  7 27  1  0  0  0
  8  9  2  0  0  0
  8 10  1  0  0  0
 10 15  1  0  0  0
 10 11  2  0  0  0
 11 12  1  0  0  0
 11 28  1  0  0  0
 12 13  2  0  0  0
 12 29  1  0  0  0
 13 14  1  0  0  0
 13 20  1  0  0  0
 14 15  2  0  0  0
 14 19  1  0  0  0
 15 16  1  0  0  0
 16 17  1  0  0  0
 16 18  2  0  0  0
 20 30  1  0  0  0
M  CHG  3  16   1  17  -1  19  -1
M  END
> <s_m_entry_id>
839

> <s_m_entry_name>
dock_pv.13

> <s_m_Source_Path>
/home/csk/Desktop/cluster/DUD-E-result/comt/glide-dock_SP_comt_dude

> <s_m_Source_File>
glide-dock_SP_comt_dude_pv.maegz

> <i_m_Source_File_Index>
76

> <i_lp_mmshare_version>
53161

> <i_f3d_flags>
0

> <r_lp_tautomer_probability>
0.99990000499975

> <s_lp_Force_Field>
S-OPLS

> <r_lp_Energy>
45.834142

> <b_lp_Chiralities_Consistent>
1

> <s_lp_Variant>
331808-1

> <s_i_glide_gridfile>
glide-grid_3bwm

> <i_i_glide_lignum>
24

> <i_i_glide_rotatable_bonds>
5

> <r_i_docking_score>
-7.32022125866738

> <r_i_glide_ligand_efficiency>
-0.366011062933369

> <r_i_glide_ligand_efficiency_sa>
-0.99350687610287

> <r_i_glide_ligand_efficiency_ln>
-1.83200994398867

> <r_i_glide_gscore>
-7.50102125866738

> <r_i_glide_lipo>
-0.600562465325593

> <r_i_glide_hbond>
0

> <r_i_glide_metal>
-2.09735525077787

> <r_i_glide_rewards>
-1.5529575

> <r_i_glide_evdw>
-21.9304714202881

> <r_i_glide_ecoul>
-19.1685123443604

> <r_i_glide_erotb>
0.725323876001154

> <r_i_glide_esite>
-0.00366949589661655

> <r_i_glide_emodel>
-81.2073170889699

> <r_i_glide_energy>
-41.0989837646484

> <r_i_glide_einternal>
1.72444105148315

> <i_i_glide_confnum>
1

> <i_i_glide_posenum>
264

> <r_i_glide_eff_state_penalty>
0.1808

> <i_f3d_flags>
0

> <s_epik_input>
W2NIXTFbY0hdW2NIXVtjSF1bY0hdYzFbQ0gyXUMoPU8pYzJbY0hdW2NIXWMoW09IXSljKFtPSF0pYzJbTitdKFtPLV0pPU8=

> <s_epik_cmdline>
J2VwaWtfcHl0aG9uJywgJy1waCcsICc3LjAnLCAnLXRuJywgJzgnLCAnLW1hJywgJzUwMCcsICctaW1hZScsICc8aW5maWxlLm1hZT4nLCAnLW9tYWUnLCAnPG91dGZpbGUubWFlPic=

> <r_epik_Ionization_Penalty>
  0.0798

> <r_epik_Ionization_Penalty_Charging>
  0.0742

> <r_epik_Ionization_Penalty_Neutral>
  0.0056

> <r_epik_State_Penalty>
  0.1808

> <r_epik_Charging_Adjusted_Penalty>
0.254975366838041

> <i_epik_Tot_Q>
-1

> <i_epik_Tot_abs_Q>
3

> <s_user_duplicate_titles>
331808,331808,331808,331808

> <s_m_subgroup_title>
glide-dock_SP_comt_dude_pv

> <s_m_subgroupid>
glide-dock_SP_comt_dude_pv

> <b_m_subgroup_collapsed>
0

$$$$
331534
                    3D
 Schrodinger Suite 2021-1.
 36 37  0  0  1  0            999 V2000
   -9.8587  -11.8098  -24.2329 C   0  0  0  0  0  0
   -9.6540  -12.2860  -22.9248 C   0  0  0  0  0  0
   -8.3707  -12.6860  -22.5121 C   0  0  0  0  0  0
   -7.2757  -12.6013  -23.3959 C   0  0  0  0  0  0
   -7.4847  -12.1300  -24.7099 C   0  0  0  0  0  0
   -8.7729  -11.7374  -25.1271 C   0  0  0  0  0  0
   -5.8832  -12.9983  -22.9295 C   0  0  0  0  0  0
   -5.3728  -12.1354  -21.7618 C   0  0  0  0  0  0
   -3.9117  -12.4417  -21.3944 C   0  0  0  0  0  0
   -3.3880  -11.5500  -20.2599 C   0  0  0  0  0  0
   -2.5857  -10.6611  -20.5409 O   0  0  0  0  0  0
   -3.8822  -11.8346  -18.8774 C   0  0  0  0  0  0
   -3.8880  -13.1826  -18.4425 C   0  0  0  0  0  0
   -4.3426  -13.5358  -17.1586 C   0  0  0  0  0  0
   -4.7960  -12.5446  -16.2759 C   0  0  0  0  0  0
   -4.7808  -11.2069  -16.6897 C   0  0  0  0  0  0
   -4.3144  -10.8190  -17.9715 C   0  0  0  0  0  0
   -4.3176   -9.3797  -18.3183 N   0  3  0  0  0  0
   -3.2541   -8.8528  -18.6230 O   0  5  0  0  0  0
   -5.3728   -8.7615  -18.2230 O   0  0  0  0  0  0
   -5.2540  -10.2860  -15.8230 O   0  5  0  0  0  0
   -5.2540  -12.8649  -15.0230 O   0  0  0  0  0  0
  -10.8424  -11.4860  -24.5439 H   0  0  0  0  0  0
  -10.4716  -12.3193  -22.2230 H   0  0  0  0  0  0
   -8.2240  -13.0308  -21.4990 H   0  0  0  0  0  0
   -6.6574  -12.0554  -25.4005 H   0  0  0  0  0  0
   -8.9250  -11.3657  -26.1299 H   0  0  0  0  0  0
   -5.1902  -12.9234  -23.7684 H   0  0  0  0  0  0
   -5.8982  -14.0488  -22.6375 H   0  0  0  0  0  0
   -6.0107  -12.2860  -20.8903 H   0  0  0  0  0  0
   -5.4596  -11.0815  -22.0317 H   0  0  0  0  0  0
   -3.2790  -12.2820  -22.2680 H   0  0  0  0  0  0
   -3.8024  -13.4924  -21.1322 H   0  0  0  0  0  0
   -3.5385  -13.9741  -19.0876 H   0  0  0  0  0  0
   -4.3544  -14.5736  -16.8569 H   0  0  0  0  0  0
   -5.6984  -13.7174  -15.0848 H   0  0  0  0  0  0
  1  6  1  0  0  0
  1  2  2  0  0  0
  1 23  1  0  0  0
  2  3  1  0  0  0
  2 24  1  0  0  0
  3  4  2  0  0  0
  3 25  1  0  0  0
  4  5  1  0  0  0
  4  7  1  0  0  0
  5  6  2  0  0  0
  5 26  1  0  0  0
  6 27  1  0  0  0
  7  8  1  0  0  0
  7 28  1  0  0  0
  7 29  1  0  0  0
  8  9  1  0  0  0
  8 30  1  0  0  0
  8 31  1  0  0  0
  9 10  1  0  0  0
  9 32  1  0  0  0
  9 33  1  0  0  0
 10 11  2  0  0  0
 10 12  1  0  0  0
 12 17  1  0  0  0
 12 13  2  0  0  0
 13 14  1  0  0  0
 13 34  1  0  0  0
 14 15  2  0  0  0
 14 35  1  0  0  0
 15 16  1  0  0  0
 15 22  1  0  0  0
 16 17  2  0  0  0
 16 21  1  0  0  0
 17 18  1  0  0  0
 18 19  1  0  0  0
 18 20  2  0  0  0
 22 36  1  0  0  0
M  CHG  3  18   1  19  -1  21  -1
M  END
> <s_m_entry_id>
844

> <s_m_entry_name>
dock_pv.19

> <s_m_Source_Path>
/home/csk/Desktop/cluster/DUD-E-result/comt/glide-dock_SP_comt_dude

> <s_m_Source_File>
glide-dock_SP_comt_dude_pv.maegz

> <i_m_Source_File_Index>
81

> <i_lp_mmshare_version>
53161

> <i_f3d_flags>
0

> <r_lp_tautomer_probability>
0.99990000499975

> <s_lp_Force_Field>
S-OPLS

> <r_lp_Energy>
38.675841

> <b_lp_Chiralities_Consistent>
1

> <s_lp_Variant>
331534-1

> <s_i_glide_gridfile>
glide-grid_3bwm

> <i_i_glide_lignum>
41

> <i_i_glide_rotatable_bonds>
7

> <r_i_docking_score>
-7.27267848909441

> <r_i_glide_ligand_efficiency>
-0.330576294958837

> <r_i_glide_ligand_efficiency_sa>
-0.926287779302599

> <r_i_glide_ligand_efficiency_ln>
-1.77770790012807

> <r_i_glide_gscore>
-7.36487848909441

> <r_i_glide_lipo>
-0.459016592389602

> <r_i_glide_hbond>
0

> <r_i_glide_metal>
-2.08345894097786

> <r_i_glide_rewards>
-1.36168595454545

> <r_i_glide_evdw>
-26.258321762085

> <r_i_glide_ecoul>
-19.7540435791016

> <r_i_glide_erotb>
0.815305623787986

> <r_i_glide_esite>
0

> <r_i_glide_emodel>
-86.554946297395

> <r_i_glide_energy>
-46.0123653411865

> <r_i_glide_einternal>
4.2849817276001

> <i_i_glide_confnum>
70

> <i_i_glide_posenum>
149

> <r_i_glide_eff_state_penalty>
0.0922

> <i_f3d_flags>
0

> <s_epik_input>
W2NIXTFbY0hdW2NIXVtjSF1bY0hdYzFbQ0gyXVtDSDJdW0NIMl1DKD1PKWMyW2NIXVtjSF1jKFtPSF0pYyhbT0hdKWMyW04rXShbTy1dKT1P

> <s_epik_cmdline>
J2VwaWtfcHl0aG9uJywgJy1waCcsICc3LjAnLCAnLXRuJywgJzgnLCAnLW1hJywgJzUwMCcsICctaW1hZScsICc8aW5maWxlLm1hZT4nLCAnLW9tYWUnLCAnPG91dGZpbGUubWFlPic=

> <r_epik_Ionization_Penalty>
  0.0815

> <r_epik_Ionization_Penalty_Charging>
  0.0805

> <r_epik_Ionization_Penalty_Neutral>
  0.0010

> <r_epik_State_Penalty>
  0.0922

> <r_epik_Charging_Adjusted_Penalty>
0.172707234646818

> <i_epik_Tot_Q>
-1

> <i_epik_Tot_abs_Q>
3

> <s_user_duplicate_titles>
331534,331534,331534,331534,331534

> <s_m_subgroup_title>
glide-dock_SP_comt_dude_pv

> <s_m_subgroupid>
glide-dock_SP_comt_dude_pv

> <b_m_subgroup_collapsed>
0

$$$$
331527
                    3D
 Schrodinger Suite 2021-1.
 39 40  0  0  1  0            999 V2000
   -7.9073   -8.0593  -25.6585 C   0  0  0  0  0  0
   -6.5310   -8.3477  -25.5914 C   0  0  0  0  0  0
   -6.0788   -9.4770  -24.8807 C   0  0  0  0  0  0
   -7.0013  -10.3228  -24.2230 C   0  0  0  0  0  0
   -8.3808  -10.0366  -24.3122 C   0  0  0  0  0  0
   -8.8330   -8.9078  -25.0230 C   0  0  0  0  0  0
   -6.5453  -11.5444  -23.4346 C   0  0  0  0  0  0
   -5.2166  -11.3701  -22.6759 C   0  0  0  0  0  0
   -4.8751  -12.5946  -21.8101 C   0  0  0  0  0  0
   -3.4263  -12.5827  -21.2925 C   0  0  0  0  0  0
   -3.1706  -11.5497  -20.1861 C   0  0  0  0  0  0
   -2.4909  -10.5668  -20.4759 O   0  0  0  0  0  0
   -3.7354  -11.8271  -18.8243 C   0  0  0  0  0  0
   -3.7316  -13.1707  -18.3684 C   0  0  0  0  0  0
   -4.2389  -13.5244  -17.1068 C   0  0  0  0  0  0
   -4.7489  -12.5351  -16.2563 C   0  0  0  0  0  0
   -4.7397  -11.2025  -16.6832 C   0  0  0  0  0  0
   -4.2395  -10.8127  -17.9500 C   0  0  0  0  0  0
   -4.2961   -9.3770  -18.3147 N   0  3  0  0  0  0
   -5.3716   -8.7959  -18.2233 O   0  5  0  0  0  0
   -3.2562   -8.8063  -18.6231 O   0  0  0  0  0  0
   -5.2552  -10.2801  -15.8244 O   0  5  0  0  0  0
   -5.2534  -12.8575  -15.0249 O   0  0  0  0  0  0
   -8.2533   -7.1894  -26.1974 H   0  0  0  0  0  0
   -5.8197   -7.6995  -26.0821 H   0  0  0  0  0  0
   -5.0188   -9.6759  -24.8456 H   0  0  0  0  0  0
   -9.1020  -10.6750  -23.8231 H   0  0  0  0  0  0
   -9.8901   -8.6885  -25.0722 H   0  0  0  0  0  0
   -6.4651  -12.3820  -24.1282 H   0  0  0  0  0  0
   -7.3263  -11.8107  -22.7207 H   0  0  0  0  0  0
   -5.2550  -10.4770  -22.0501 H   0  0  0  0  0  0
   -4.4086  -11.2144  -23.3902 H   0  0  0  0  0  0
   -5.0103  -13.4979  -22.4059 H   0  0  0  0  0  0
   -5.5803  -12.6749  -20.9809 H   0  0  0  0  0  0
   -2.7509  -12.3690  -22.1214 H   0  0  0  0  0  0
   -3.1462  -13.5769  -20.9528 H   0  0  0  0  0  0
   -3.3336  -13.9695  -18.9730 H   0  0  0  0  0  0
   -4.2428  -14.5588  -16.7949 H   0  0  0  0  0  0
   -5.7012  -13.7063  -15.0998 H   0  0  0  0  0  0
  1  6  1  0  0  0
  1  2  2  0  0  0
  1 24  1  0  0  0
  2  3  1  0  0  0
  2 25  1  0  0  0
  3  4  2  0  0  0
  3 26  1  0  0  0
  4  5  1  0  0  0
  4  7  1  0  0  0
  5  6  2  0  0  0
  5 27  1  0  0  0
  6 28  1  0  0  0
  7  8  1  0  0  0
  7 29  1  0  0  0
  7 30  1  0  0  0
  8  9  1  0  0  0
  8 31  1  0  0  0
  8 32  1  0  0  0
  9 10  1  0  0  0
  9 33  1  0  0  0
  9 34  1  0  0  0
 10 11  1  0  0  0
 10 35  1  0  0  0
 10 36  1  0  0  0
 11 12  2  0  0  0
 11 13  1  0  0  0
 13 18  1  0  0  0
 13 14  2  0  0  0
 14 15  1  0  0  0
 14 37  1  0  0  0
 15 16  2  0  0  0
 15 38  1  0  0  0
 16 17  1  0  0  0
 16 23  1  0  0  0
 17 18  2  0  0  0
 17 22  1  0  0  0
 18 19  1  0  0  0
 19 20  1  0  0  0
 19 21  2  0  0  0
 23 39  1  0  0  0
M  CHG  3  19   1  20  -1  22  -1
M  END
> <s_m_entry_id>
846

> <s_m_entry_name>
dock_pv.17

> <s_m_Source_Path>
/home/csk/Desktop/cluster/DUD-E-result/comt/glide-dock_SP_comt_dude

> <s_m_Source_File>
glide-dock_SP_comt_dude_pv.maegz

> <i_m_Source_File_Index>
83

> <i_lp_mmshare_version>
53161

> <i_f3d_flags>
0

> <r_lp_tautomer_probability>
0.99990000499975

> <s_lp_Force_Field>
S-OPLS

> <r_lp_Energy>
40.650326

> <b_lp_Chiralities_Consistent>
1

> <s_lp_Variant>
331527-1

> <s_i_glide_gridfile>
glide-grid_3bwm

> <i_i_glide_lignum>
35

> <i_i_glide_rotatable_bonds>
8

> <r_i_docking_score>
-7.24122152870543

> <r_i_glide_ligand_efficiency>
-0.314835718639366

> <r_i_glide_ligand_efficiency_sa>
-0.895350903380543

> <r_i_glide_ligand_efficiency_ln>
-1.7509930254076

> <r_i_glide_gscore>
-7.33262152870543

> <r_i_glide_lipo>
-0.736041335458511

> <r_i_glide_hbond>
-0.0322834307514296

> <r_i_glide_metal>
-2.11423959812709

> <r_i_glide_rewards>
-1.26605018181818

> <r_i_glide_evdw>
-24.6730575561523

> <r_i_glide_ecoul>
-19.2736206054688

> <r_i_glide_erotb>
0.940688986077712

> <r_i_glide_esite>
0

> <r_i_glide_emodel>
-83.411252318301

> <r_i_glide_energy>
-43.9466781616211

> <r_i_glide_einternal>
4.21585178375244

> <i_i_glide_confnum>
22

> <i_i_glide_posenum>
292

> <r_i_glide_eff_state_penalty>
0.0914

> <i_f3d_flags>
0

> <s_epik_input>
W2NIXTFbY0hdW2NIXVtjSF1bY0hdYzFbQ0gyXVtDSDJdW0NIMl1bQ0gyXUMoPU8pYzJbY0hdW2NIXWMoW09IXSljKFtPSF0pYzJbTitdKFtPLV0pPU8=

> <s_epik_cmdline>
J2VwaWtfcHl0aG9uJywgJy1waCcsICc3LjAnLCAnLXRuJywgJzgnLCAnLW1hJywgJzUwMCcsICctaW1hZScsICc8aW5maWxlLm1hZT4nLCAnLW9tYWUnLCAnPG91dGZpbGUubWFlPic=

> <r_epik_Ionization_Penalty>
  0.0810

> <r_epik_Ionization_Penalty_Charging>
  0.0801

> <r_epik_Ionization_Penalty_Neutral>
  0.0010

> <r_epik_State_Penalty>
  0.0914

> <r_epik_Charging_Adjusted_Penalty>
0.171428518874368

> <i_epik_Tot_Q>
-1

> <i_epik_Tot_abs_Q>
3

> <s_user_duplicate_titles>
331527,331527,331527,331527,331527

> <s_m_subgroup_title>
glide-dock_SP_comt_dude_pv

> <s_m_subgroupid>
glide-dock_SP_comt_dude_pv

> <b_m_subgroup_collapsed>
0

$$$$
