CHEMBL2431_lig1459
                    3D
 Schrodinger Suite 2021-1.
 40 43  0  0  1  0            999 V2000
   21.6366  -20.6401   12.4091 N   0  0  0  0  0  0
   21.9490  -20.7513   11.0904 C   0  0  0  0  0  0
   21.9835  -21.9111   10.3977 N   0  0  0  0  0  0
   21.6425  -23.0478   11.0555 C   0  0  0  0  0  0
   21.3211  -23.0335   12.4156 C   0  0  0  0  0  0
   21.3211  -21.7922   13.0573 C   0  0  0  0  0  0
   21.6139  -24.2746   10.3769 N   0  0  0  0  0  0
   21.6273  -24.6527    9.0142 C   0  0  0  0  0  0
   21.7203  -26.0194    8.6426 C   0  0  0  0  0  0
   21.7746  -26.3639    7.2830 C   0  0  0  0  0  0
   21.6982  -25.3885    6.2944 C   0  0  0  0  0  0
   21.5622  -24.0547    6.6545 C   0  0  0  0  0  0
   21.5237  -23.6936    7.9956 C   0  0  0  0  0  0
   21.7857  -27.1404    9.6489 C   0  0  0  0  0  0
   20.9210  -27.0053   10.6923 O   0  0  0  0  0  0
   22.5220  -28.1131    9.4964 O   0  0  0  0  0  0
   22.2175  -19.6250   10.3029 N   0  0  0  0  0  0
   22.3703  -18.2541   10.5619 C   0  0  0  0  0  0
   22.4041  -17.3896    9.4624 C   0  0  0  0  0  0
   22.5228  -16.3709   12.1016 C   0  0  0  0  0  0
   22.5115  -17.7420   11.8549 C   0  0  0  0  0  0
   22.5058  -15.4943   11.0159 C   0  0  0  0  0  0
   22.4798  -16.0049    9.6842 C   0  0  0  0  0  0
   22.5211  -14.8384    8.8821 C   0  0  0  0  0  0
   22.4967  -13.7891    9.7657 N   0  0  0  0  0  0
   22.4964  -14.1306   11.0620 N   0  0  0  0  0  0
   21.0456  -23.9328   12.9459 H   0  0  0  0  0  0
   21.0644  -21.7067   14.1034 H   0  0  0  0  0  0
   21.4630  -25.0556   10.9974 H   0  0  0  0  0  0
   21.8618  -27.3984    6.9795 H   0  0  0  0  0  0
   21.7335  -25.6630    5.2504 H   0  0  0  0  0  0
   21.4848  -23.2909    5.8971 H   0  0  0  0  0  0
   21.3944  -22.6474    8.2086 H   0  0  0  0  0  0
   20.1125  -26.5381   10.3983 H   0  0  0  0  0  0
   22.2678  -19.8705    9.3271 H   0  0  0  0  0  0
   22.3341  -17.7762    8.4561 H   0  0  0  0  0  0
   22.5210  -15.9945   13.1118 H   0  0  0  0  0  0
   22.5544  -18.4078   12.6970 H   0  0  0  0  0  0
   22.5209  -14.6585    7.8186 H   0  0  0  0  0  0
   22.5094  -12.8039    9.4951 H   0  0  0  0  0  0
  1  2  2  0  0  0
  1  6  1  0  0  0
  2  3  1  0  0  0
  2 17  1  0  0  0
  3  4  2  0  0  0
  4  7  1  0  0  0
  4  5  1  0  0  0
  5  6  2  0  0  0
  5 27  1  0  0  0
  6 28  1  0  0  0
  7  8  1  0  0  0
  7 29  1  0  0  0
  8 13  1  0  0  0
  8  9  2  0  0  0
  9 14  1  0  0  0
  9 10  1  0  0  0
 10 11  2  0  0  0
 10 30  1  0  0  0
 11 12  1  0  0  0
 11 31  1  0  0  0
 12 13  2  0  0  0
 12 32  1  0  0  0
 13 33  1  0  0  0
 14 15  1  0  0  0
 14 16  2  0  0  0
 15 34  1  0  0  0
 17 18  1  0  0  0
 17 35  1  0  0  0
 18 19  2  0  0  0
 18 21  1  0  0  0
 19 36  1  0  0  0
 19 23  1  0  0  0
 20 22  1  0  0  0
 20 37  1  0  0  0
 20 21  2  0  0  0
 21 38  1  0  0  0
 22 26  2  0  0  0
 22 23  1  0  0  0
 23 24  2  0  0  0
 24 39  1  0  0  0
 24 25  1  0  0  0
 25 40  1  0  0  0
 25 26  1  0  0  0
M  END
> <s_m_entry_id>
4526

> <s_m_entry_name>
dock_pv.2

> <s_m_Source_Path>
/home/csk/Desktop/cluster/DUD-E-result/akt2

> <s_m_Source_File>
dock_pv.maegz

> <i_m_Source_File_Index>
2

> <chembl_id>
CHEMBL396523

> <chembl_pref_name>
None

> <i_lp_mmshare_version>
53161

> <i_f3d_flags>
0

> <r_lp_tautomer_probability>
0.01682948890584

> <s_lp_Force_Field>
OPLS_2005

> <r_lp_Energy>
31.740416

> <b_lp_Chiralities_Consistent>
1

> <s_lp_Variant>
CHEMBL2431_lig1459-2

> <s_i_glide_gridfile>
glide-grid_3d0e

> <i_i_glide_lignum>
2134

> <i_i_glide_rotatable_bonds>
6

> <r_i_docking_score>
-7.75148522381918

> <r_i_glide_ligand_efficiency>
-0.298134047069968

> <r_i_glide_ligand_efficiency_sa>
-0.883220941343953

> <r_i_glide_ligand_efficiency_ln>
-1.82041087011637

> <r_i_glide_gscore>
-7.75148522381918

> <r_i_glide_lipo>
-1.84737153355948

> <r_i_glide_hbond>
-0.513127694892385

> <r_i_glide_metal>
0

> <r_i_glide_rewards>
-2.142663

> <r_i_glide_evdw>
-35.5697402954102

> <r_i_glide_ecoul>
-12.2519798278809

> <r_i_glide_erotb>
0.554701730317297

> <r_i_glide_esite>
-0.186740736731973

> <r_i_glide_emodel>
-67.4433237228241

> <r_i_glide_energy>
-47.821720123291

> <r_i_glide_einternal>
10.8362722396851

> <i_i_glide_confnum>
44

> <i_i_glide_posenum>
322

> <r_i_glide_eff_state_penalty>
0

> <s_user_duplicate_titles>
CHEMBL2431_lig1459

> <s_m_subgroup_title>
dock_pv

> <s_m_subgroupid>
dock_pv

> <b_m_subgroup_collapsed>
1

$$$$
CHEMBL2431_lig1582
                    3D
 Schrodinger Suite 2021-1.
 45 47  0  0  1  0            999 V2000
   23.3267  -19.6093    6.0010 F   0  0  0  0  0  0
   23.0003  -22.2875    6.6696 O   0  0  0  0  0  0
   20.1207  -24.0950    5.1633 O   0  0  0  0  0  0
   20.9547  -22.6374    7.5821 N   0  0  0  0  0  0
   22.5164  -14.1254   11.0756 N   0  0  0  0  0  0
   22.0104  -20.4575    7.8248 C   0  0  0  0  0  0
   22.3175  -17.9399    9.0866 C   0  0  0  0  0  0
   22.7466  -19.4304    7.2094 C   0  0  0  0  0  0
   22.0098  -21.8600    7.2619 C   0  0  0  0  0  0
   22.9045  -18.1961    7.8412 C   0  0  0  0  0  0
   22.4793  -16.6281    9.7743 C   0  0  0  0  0  0
   21.3639  -20.1752    9.0375 C   0  0  0  0  0  0
   21.5278  -18.9426    9.6584 C   0  0  0  0  0  0
   20.9105  -24.1110    7.5240 C   0  0  2  0  0  0
   22.5209  -15.4336    9.0439 C   0  0  0  0  0  0
   22.5209  -16.5382   11.1755 C   0  0  0  0  0  0
   21.9315  -24.7945    8.4801 C   0  0  0  0  0  0
   21.7485  -24.5317    9.9762 C   0  0  0  0  0  0
   22.5211  -14.2186    9.7234 C   0  0  0  0  0  0
   22.5215  -15.2829   11.7835 C   0  0  0  0  0  0
   20.9953  -24.7118    6.0923 C   0  0  0  0  0  0
   21.3210  -25.5622   10.8161 C   0  0  0  0  0  0
   22.0054  -23.2703   10.5188 C   0  0  0  0  0  0
   21.0587  -25.3095   12.1591 C   0  0  0  0  0  0
   21.7210  -23.0085   11.8554 C   0  0  0  0  0  0
   21.2495  -24.0303   12.6720 C   0  0  0  0  0  0
   20.6431  -23.4552    4.6394 H   0  0  0  0  0  0
   20.1532  -22.1908    8.0023 H   0  0  0  0  0  0
   23.5001  -17.4386    7.3544 H   0  0  0  0  0  0
   20.7581  -20.9139    9.5453 H   0  0  0  0  0  0
   21.0209  -18.7755   10.5983 H   0  0  0  0  0  0
   19.9219  -24.3705    7.8972 H   0  0  0  0  0  0
   22.4893  -15.4353    7.9640 H   0  0  0  0  0  0
   22.5074  -17.4277   11.7880 H   0  0  0  0  0  0
   22.9223  -24.4637    8.2056 H   0  0  0  0  0  0
   21.9285  -25.8731    8.3127 H   0  0  0  0  0  0
   22.5113  -13.2950    9.1678 H   0  0  0  0  0  0
   22.5205  -15.1943   12.8596 H   0  0  0  0  0  0
   22.0109  -24.6461    5.6990 H   0  0  0  0  0  0
   20.7191  -25.7664    6.1217 H   0  0  0  0  0  0
   21.1239  -26.5469   10.4175 H   0  0  0  0  0  0
   22.4036  -22.4829    9.9041 H   0  0  0  0  0  0
   20.6824  -26.0970   12.7933 H   0  0  0  0  0  0
   21.8726  -22.0181   12.2597 H   0  0  0  0  0  0
   21.0248  -23.8289   13.7091 H   0  0  0  0  0  0
  1  8  1  0  0  0
  2  9  2  0  0  0
  3 21  1  0  0  0
  3 27  1  0  0  0
  4  9  1  0  0  0
  4 14  1  0  0  0
  4 28  1  0  0  0
  5 19  2  0  0  0
  5 20  1  0  0  0
  6  8  1  0  0  0
  6  9  1  0  0  0
  6 12  2  0  0  0
  7 10  1  0  0  0
  7 11  1  0  0  0
  7 13  2  0  0  0
  8 10  2  0  0  0
 10 29  1  0  0  0
 11 15  2  0  0  0
 11 16  1  0  0  0
 12 13  1  0  0  0
 12 30  1  0  0  0
 13 31  1  0  0  0
 14 17  1  0  0  0
 14 21  1  0  0  0
 14 32  1  0  0  0
 15 19  1  0  0  0
 15 33  1  0  0  0
 16 20  2  0  0  0
 16 34  1  0  0  0
 17 18  1  0  0  0
 17 35  1  0  0  0
 17 36  1  0  0  0
 18 22  2  0  0  0
 18 23  1  0  0  0
 19 37  1  0  0  0
 20 38  1  0  0  0
 21 39  1  0  0  0
 21 40  1  0  0  0
 22 24  1  0  0  0
 22 41  1  0  0  0
 23 25  2  0  0  0
 23 42  1  0  0  0
 24 26  2  0  0  0
 24 43  1  0  0  0
 25 26  1  0  0  0
 25 44  1  0  0  0
 26 45  1  0  0  0
M  END
> <s_m_entry_id>
4527

> <s_m_entry_name>
dock_pv.3

> <s_m_Source_Path>
/home/csk/Desktop/cluster/DUD-E-result/akt2

> <s_m_Source_File>
dock_pv.maegz

> <i_m_Source_File_Index>
3

> <chembl_id>
CHEMBL1969755

> <chembl_pref_name>
None

> <i_lp_mmshare_version>
53161

> <i_f3d_flags>
0

> <r_lp_tautomer_probability>
1

> <s_lp_Force_Field>
OPLS_2005

> <r_lp_Energy>
18.404922

> <b_lp_Chiralities_Consistent>
1

> <s_lp_Variant>
CHEMBL2431_lig1582-1

> <s_i_glide_gridfile>
glide-grid_3d0e

> <i_i_glide_lignum>
2323

> <i_i_glide_rotatable_bonds>
8

> <r_i_docking_score>
-7.66453296631256

> <r_i_glide_ligand_efficiency>
-0.29478972947356

> <r_i_glide_ligand_efficiency_sa>
-0.873313413623848

> <r_i_glide_ligand_efficiency_ln>
-1.79999041775457

> <r_i_glide_gscore>
-7.66453296631256

> <r_i_glide_lipo>
-2.06135249327166

> <r_i_glide_hbond>
-0.565455527509917

> <r_i_glide_metal>
0

> <r_i_glide_rewards>
-2.65585235387708

> <r_i_glide_evdw>
-40.7025947570801

> <r_i_glide_ecoul>
-8.50832176208496

> <r_i_glide_erotb>
0.931505338256756

> <r_i_glide_esite>
-0.00199992774390671

> <r_i_glide_emodel>
-69.7398889934683

> <r_i_glide_energy>
-49.210916519165

> <r_i_glide_einternal>
7.19157552719116

> <i_i_glide_confnum>
6

> <i_i_glide_posenum>
219

> <r_i_glide_eff_state_penalty>
0

> <s_user_duplicate_titles>
CHEMBL2431_lig1582

> <s_m_subgroup_title>
dock_pv

> <s_m_subgroupid>
dock_pv

> <b_m_subgroup_collapsed>
1

$$$$
CHEMBL2431_lig1160
                    3D
 Schrodinger Suite 2021-1.
 45 47  0  0  1  0            999 V2000
   20.5969  -22.8942   14.3200 Cl  0  0  0  0  0  0
   23.0048  -22.2940    6.6789 O   0  0  0  0  0  0
   20.1219  -24.0952    5.3855 O   0  0  0  0  0  0
   20.9971  -22.6146    7.6943 N   0  0  0  0  0  0
   22.5170  -14.1009   11.0144 N   0  0  0  0  0  0
   22.0642  -20.4516    7.8598 C   0  0  0  0  0  0
   22.3439  -17.9314    9.0661 C   0  0  0  0  0  0
   22.0480  -21.8606    7.3209 C   0  0  0  0  0  0
   22.4887  -16.6140    9.7391 C   0  0  0  0  0  0
   22.8983  -19.4824    7.2870 C   0  0  0  0  0  0
   21.3295  -20.1252    9.0079 C   0  0  0  0  0  0
   23.0291  -18.2281    7.8825 C   0  0  0  0  0  0
   21.4862  -18.8896    9.6087 C   0  0  0  0  0  0
   20.9313  -24.0806    7.7158 C   0  0  2  0  0  0
   21.7289  -24.3050   10.1870 C   0  0  0  0  0  0
   21.9279  -24.7218    8.7262 C   0  0  0  0  0  0
   22.5211  -15.4305    8.9942 C   0  0  0  0  0  0
   22.5210  -16.5122   11.1394 C   0  0  0  0  0  0
   21.1600  -25.1969   11.0981 C   0  0  0  0  0  0
   22.0763  -23.0206   10.6155 C   0  0  0  0  0  0
   20.9777  -24.7412    6.3141 C   0  0  0  0  0  0
   21.0891  -23.4625   12.7666 C   0  0  0  0  0  0
   22.5212  -14.2091    9.6622 C   0  0  0  0  0  0
   22.5210  -15.2501   11.7349 C   0  0  0  0  0  0
   20.8288  -24.7759   12.3839 C   0  0  0  0  0  0
   21.7210  -22.5883   11.8888 C   0  0  0  0  0  0
   20.6581  -23.4624    4.8739 H   0  0  0  0  0  0
   20.2114  -22.1413    8.1142 H   0  0  0  0  0  0
   23.4739  -19.7069    6.3992 H   0  0  0  0  0  0
   20.6656  -20.8301    9.4893 H   0  0  0  0  0  0
   23.6933  -17.5006    7.4399 H   0  0  0  0  0  0
   20.9218  -18.6794   10.5049 H   0  0  0  0  0  0
   19.9366  -24.2866    8.1020 H   0  0  0  0  0  0
   22.9342  -24.4566    8.4337 H   0  0  0  0  0  0
   21.8779  -25.8095    8.6572 H   0  0  0  0  0  0
   22.4886  -15.4495    7.9147 H   0  0  0  0  0  0
   22.5097  -17.3963   11.7601 H   0  0  0  0  0  0
   20.9071  -26.2008   10.7885 H   0  0  0  0  0  0
   22.5811  -22.3363    9.9547 H   0  0  0  0  0  0
   21.9917  -24.7400    5.9131 H   0  0  0  0  0  0
   20.6412  -25.7766    6.3851 H   0  0  0  0  0  0
   22.5120  -13.2951    9.0970 H   0  0  0  0  0  0
   22.5231  -15.1494   12.8106 H   0  0  0  0  0  0
   20.3344  -25.4549   13.0619 H   0  0  0  0  0  0
   21.9330  -21.5745   12.1939 H   0  0  0  0  0  0
  1 22  1  0  0  0
  2  8  2  0  0  0
  3 21  1  0  0  0
  3 27  1  0  0  0
  4  8  1  0  0  0
  4 14  1  0  0  0
  4 28  1  0  0  0
  5 23  2  0  0  0
  5 24  1  0  0  0
  6  8  1  0  0  0
  6 10  2  0  0  0
  6 11  1  0  0  0
  7  9  1  0  0  0
  7 12  2  0  0  0
  7 13  1  0  0  0
  9 17  2  0  0  0
  9 18  1  0  0  0
 10 12  1  0  0  0
 10 29  1  0  0  0
 11 13  2  0  0  0
 11 30  1  0  0  0
 12 31  1  0  0  0
 13 32  1  0  0  0
 14 16  1  0  0  0
 14 21  1  0  0  0
 14 33  1  0  0  0
 15 16  1  0  0  0
 15 19  2  0  0  0
 15 20  1  0  0  0
 16 34  1  0  0  0
 16 35  1  0  0  0
 17 23  1  0  0  0
 17 36  1  0  0  0
 18 24  2  0  0  0
 18 37  1  0  0  0
 19 25  1  0  0  0
 19 38  1  0  0  0
 20 26  2  0  0  0
 20 39  1  0  0  0
 21 40  1  0  0  0
 21 41  1  0  0  0
 22 25  2  0  0  0
 22 26  1  0  0  0
 23 42  1  0  0  0
 24 43  1  0  0  0
 25 44  1  0  0  0
 26 45  1  0  0  0
M  END
> <s_m_entry_id>
4528

> <s_m_entry_name>
dock_pv.4

> <s_m_Source_Path>
/home/csk/Desktop/cluster/DUD-E-result/akt2

> <s_m_Source_File>
dock_pv.maegz

> <i_m_Source_File_Index>
4

> <chembl_id>
CHEMBL1996931

> <chembl_pref_name>
None

> <i_lp_mmshare_version>
53161

> <i_f3d_flags>
0

> <r_lp_tautomer_probability>
1

> <s_lp_Force_Field>
OPLS_2005

> <r_lp_Energy>
17.153471

> <b_lp_Chiralities_Consistent>
1

> <s_lp_Variant>
CHEMBL2431_lig1160-1

> <s_i_glide_gridfile>
glide-grid_3d0e

> <i_i_glide_lignum>
1668

> <i_i_glide_rotatable_bonds>
8

> <r_i_docking_score>
-7.561547945918

> <r_i_glide_ligand_efficiency>
-0.290828767150692

> <r_i_glide_ligand_efficiency_sa>
-0.861579078327986

> <r_i_glide_ligand_efficiency_ln>
-1.77580472363632

> <r_i_glide_gscore>
-7.561547945918

> <r_i_glide_lipo>
-2.08369163603447

> <r_i_glide_hbond>
-0.533464946827783

> <r_i_glide_metal>
0

> <r_i_glide_rewards>
-2.62812160084137

> <r_i_glide_evdw>
-43.392032623291

> <r_i_glide_ecoul>
-6.7002158164978

> <r_i_glide_erotb>
0.858364241424846

> <r_i_glide_esite>
0

> <r_i_glide_emodel>
-70.8385467906296

> <r_i_glide_energy>
-50.0922484397888

> <r_i_glide_einternal>
7.48763704299927

> <i_i_glide_confnum>
2

> <i_i_glide_posenum>
169

> <r_i_glide_eff_state_penalty>
0

> <s_user_duplicate_titles>
CHEMBL2431_lig1160

> <s_m_subgroup_title>
dock_pv

> <s_m_subgroupid>
dock_pv

> <b_m_subgroup_collapsed>
1

$$$$
CHEMBL2431_lig869
                    3D
 Schrodinger Suite 2021-1.
 48 51  0  0  1  0            999 V2000
   21.8836  -26.0182    5.0311 C   0  0  0  0  0  0
   22.1720  -24.8412    5.7204 C   0  0  0  0  0  0
   22.0790  -24.7809    7.1173 C   0  0  0  0  0  0
   21.7128  -25.9442    7.8120 C   0  0  0  0  0  0
   21.4316  -27.1258    7.1259 C   0  0  0  0  0  0
   21.5110  -27.1617    5.7338 C   0  0  0  0  0  0
   22.4118  -23.4519    7.8235 C   0  0  1  0  0  0
   21.3078  -22.3784    7.5777 C   0  0  1  0  0  0
   20.1210  -22.7065    8.5025 C   0  0  0  0  0  0
   20.5211  -22.5138    9.8971 N   0  0  2  0  0  0
   21.4730  -23.5475   10.2878 C   0  0  0  0  0  0
   22.7148  -23.5404    9.3555 C   0  0  0  0  0  0
   21.7108  -20.9925    7.8125 N   0  0  0  0  0  0
   22.6228  -20.2569    7.1716 C   0  0  0  0  0  0
   22.8022  -18.9717    7.7776 C   0  0  0  0  0  0
   23.3209  -20.6548    6.2429 O   0  0  0  0  0  0
   23.9139  -18.2585    7.4682 O   0  0  0  0  0  0
   23.9297  -17.1871    8.2968 C   0  0  0  0  0  0
   22.7950  -17.1538    9.0802 C   0  0  0  0  0  0
   22.0478  -18.2694    8.7147 C   0  0  0  0  0  0
   22.5210  -16.2256   10.1362 C   0  0  0  0  0  0
   22.2654  -14.8849    9.9873 N   0  0  0  0  0  0
   22.1206  -14.2521   11.1552 N   0  0  0  0  0  0
   22.2637  -15.1897   12.0605 C   0  0  0  0  0  0
   22.5436  -16.4374   11.4994 C   0  0  0  0  0  0
   22.3094  -14.0965    8.7741 C   0  0  0  0  0  0
   25.3210  -16.2056    8.2971 Cl  0  0  0  0  0  0
   22.9150  -17.9111   12.2970 Cl  0  0  0  0  0  0
   21.0862  -28.2370    7.8145 F   0  0  0  0  0  0
   21.2342  -28.3027    5.0621 F   0  0  0  0  0  0
   21.9533  -26.0396    3.9529 H   0  0  0  0  0  0
   22.4791  -23.9695    5.1591 H   0  0  0  0  0  0
   21.6328  -25.9581    8.8864 H   0  0  0  0  0  0
   23.3208  -23.0996    7.3356 H   0  0  0  0  0  0
   20.9790  -22.4117    6.5359 H   0  0  0  0  0  0
   19.2932  -22.0286    8.3044 H   0  0  0  0  0  0
   19.7785  -23.7324    8.3636 H   0  0  0  0  0  0
   19.7053  -22.4961   10.5244 H   0  0  0  0  0  0
   21.7826  -23.3443   11.3135 H   0  0  0  0  0  0
   20.9706  -24.5156   10.2996 H   0  0  0  0  0  0
   23.3261  -24.4134    9.5765 H   0  0  0  0  0  0
   23.3201  -22.6838    9.6537 H   0  0  0  0  0  0
   21.0405  -20.4801    8.3656 H   0  0  0  0  0  0
   21.1068  -18.5693    9.1549 H   0  0  0  0  0  0
   22.2006  -14.9735   13.1164 H   0  0  0  0  0  0
   22.1206  -14.7264    7.9053 H   0  0  0  0  0  0
   21.5763  -13.2899    8.8125 H   0  0  0  0  0  0
   23.3143  -13.6951    8.6971 H   0  0  0  0  0  0
  1  2  2  0  0  0
  1  6  1  0  0  0
  1 31  1  0  0  0
  2  3  1  0  0  0
  2 32  1  0  0  0
  3  4  2  0  0  0
  3  7  1  0  0  0
  4  5  1  0  0  0
  4 33  1  0  0  0
  5  6  2  0  0  0
  5 29  1  0  0  0
  6 30  1  0  0  0
  7  8  1  0  0  0
  7 12  1  0  0  0
  7 34  1  0  0  0
  8  9  1  0  0  0
  8 13  1  0  0  0
  8 35  1  0  0  0
  9 10  1  0  0  0
  9 36  1  0  0  0
  9 37  1  0  0  0
 10 11  1  0  0  0
 10 38  1  0  0  0
 11 12  1  0  0  0
 11 39  1  0  0  0
 11 40  1  0  0  0
 12 41  1  0  0  0
 12 42  1  0  0  0
 13 14  1  0  0  0
 13 43  1  0  0  0
 14 15  1  0  0  0
 14 16  2  0  0  0
 15 17  1  0  0  0
 15 20  2  0  0  0
 17 18  1  0  0  0
 18 19  2  0  0  0
 18 27  1  0  0  0
 19 20  1  0  0  0
 19 21  1  0  0  0
 20 44  1  0  0  0
 21 22  1  0  0  0
 21 25  2  0  0  0
 22 23  1  0  0  0
 22 26  1  0  0  0
 23 24  2  0  0  0
 24 25  1  0  0  0
 24 45  1  0  0  0
 25 28  1  0  0  0
 26 46  1  0  0  0
 26 47  1  0  0  0
 26 48  1  0  0  0
M  END
> <s_m_entry_id>
4529

> <s_m_entry_name>
dock_pv.5

> <s_m_Source_Path>
/home/csk/Desktop/cluster/DUD-E-result/akt2

> <s_m_Source_File>
dock_pv.maegz

> <i_m_Source_File_Index>
5

> <chembl_id>
CHEMBL4457064

> <chembl_pref_name>
None

> <i_lp_mmshare_version>
53161

> <i_f3d_flags>
0

> <r_lp_tautomer_probability>
1

> <s_lp_Force_Field>
OPLS_2005

> <r_lp_Energy>
24.363799

> <b_lp_Chiralities_Consistent>
1

> <s_lp_Variant>
CHEMBL2431_lig869-1

> <s_i_glide_gridfile>
glide-grid_3d0e

> <i_i_glide_lignum>
1237

> <i_i_glide_rotatable_bonds>
5

> <r_i_docking_score>
-7.5236064161006

> <r_i_glide_ligand_efficiency>
-0.250786880536687

> <r_i_glide_ligand_efficiency_sa>
-0.779253146386895

> <r_i_glide_ligand_efficiency_ln>
-1.70944535399574

> <r_i_glide_gscore>
-7.5236064161006

> <r_i_glide_lipo>
-2.33134123060517

> <r_i_glide_hbond>
-0.456

> <r_i_glide_metal>
0

> <r_i_glide_rewards>
-1.82462457542148

> <r_i_glide_evdw>
-43.5474243164062

> <r_i_glide_ecoul>
-7.82414531707764

> <r_i_glide_erotb>
0.484548529919054

> <r_i_glide_esite>
-0.0451961266110445

> <r_i_glide_emodel>
-69.962513423401

> <r_i_glide_energy>
-51.3715696334839

> <r_i_glide_einternal>
4.25065326690674

> <i_i_glide_confnum>
345

> <i_i_glide_posenum>
383

> <r_i_glide_eff_state_penalty>
0

> <s_user_duplicate_titles>
CHEMBL2431_lig869

> <s_m_subgroup_title>
dock_pv

> <s_m_subgroupid>
dock_pv

> <b_m_subgroup_collapsed>
1

$$$$
CHEMBL2431_lig1039
                    3D
 Schrodinger Suite 2021-1.
 32 33  0  0  1  0            999 V2000
   22.9210  -16.8950    6.2256 I   0  0  0  0  0  0
   20.1534  -19.6953   11.6139 O   0  0  0  0  0  0
   20.1210  -22.1943    9.4970 O   0  0  0  0  0  0
   22.5210  -18.5456   10.1973 N   0  0  0  0  0  0
   22.5210  -16.7828   11.8762 N   0  0  0  0  0  0
   22.4794  -14.5298   10.9687 N   0  0  0  0  0  0
   22.5210  -14.0948    8.6970 N   0  0  0  0  0  0
   19.7210  -20.0950    7.3533 N   0  0  0  0  0  0
   22.5765  -16.4046    9.4407 C   0  0  0  0  0  0
   22.5210  -17.2242   10.6095 C   0  0  0  0  0  0
   22.6982  -17.3038    8.3139 C   0  0  0  0  0  0
   22.5220  -15.0261    9.7090 C   0  0  0  0  0  0
   22.6851  -18.5555    8.8321 C   0  0  0  0  0  0
   22.4956  -19.7418   11.0370 C   0  0  0  0  0  0
   21.1436  -20.4815   10.9575 C   0  0  2  0  0  0
   22.5048  -15.4317   11.9753 C   0  0  0  0  0  0
   20.7405  -20.9265    9.5073 C   0  0  2  0  0  0
   19.8439  -19.8881    8.7872 C   0  0  0  0  0  0
   19.3874  -20.2778   11.7443 H   0  0  0  0  0  0
   19.3751  -22.1729   10.1180 H   0  0  0  0  0  0
   22.6155  -14.4011    7.7396 H   0  0  0  0  0  0
   22.5029  -13.1130    8.9495 H   0  0  0  0  0  0
   19.3210  -19.2314    6.9858 H   0  0  0  0  0  0
   20.6323  -20.1776    6.9285 H   0  0  0  0  0  0
   22.7916  -19.4847    8.2970 H   0  0  0  0  0  0
   22.7203  -19.4633   12.0681 H   0  0  0  0  0  0
   23.3044  -20.4003   10.7190 H   0  0  0  0  0  0
   21.2629  -21.3792   11.5680 H   0  0  0  0  0  0
   22.4723  -15.0307   12.9765 H   0  0  0  0  0  0
   21.6435  -21.0956    8.9264 H   0  0  0  0  0  0
   20.2249  -18.8801    8.9262 H   0  0  0  0  0  0
   18.8774  -19.8491    9.2670 H   0  0  0  0  0  0
  1 11  1  0  0  0
  2 15  1  0  0  0
  2 19  1  0  0  0
  3 17  1  0  0  0
  3 20  1  0  0  0
  4 10  1  0  0  0
  4 13  1  0  0  0
  4 14  1  0  0  0
  5 10  2  0  0  0
  5 16  1  0  0  0
  6 12  1  0  0  0
  6 16  2  0  0  0
  7 12  1  0  0  0
  7 21  1  0  0  0
  7 22  1  0  0  0
  8 18  1  0  0  0
  8 23  1  0  0  0
  8 24  1  0  0  0
  9 10  1  0  0  0
  9 11  1  0  0  0
  9 12  2  0  0  0
 11 13  2  0  0  0
 13 25  1  0  0  0
 14 15  1  0  0  0
 14 26  1  0  0  0
 14 27  1  0  0  0
 15 17  1  0  0  0
 15 28  1  0  0  0
 16 29  1  0  0  0
 17 18  1  0  0  0
 17 30  1  0  0  0
 18 31  1  0  0  0
 18 32  1  0  0  0
M  END
> <s_m_entry_id>
4530

> <s_m_entry_name>
dock_pv.6

> <s_m_Source_Path>
/home/csk/Desktop/cluster/DUD-E-result/akt2

> <s_m_Source_File>
dock_pv.maegz

> <i_m_Source_File_Index>
6

> <chembl_id>
CHEMBL1975534

> <chembl_pref_name>
None

> <i_lp_mmshare_version>
53161

> <i_f3d_flags>
0

> <r_lp_tautomer_probability>
1

> <s_lp_Force_Field>
OPLS_2005

> <r_lp_Energy>
15.437329

> <b_lp_Chiralities_Consistent>
1

> <s_lp_Variant>
CHEMBL2431_lig1039-1

> <s_i_glide_gridfile>
glide-grid_3d0e

> <i_i_glide_lignum>
1475

> <i_i_glide_rotatable_bonds>
6

> <r_i_docking_score>
-7.48278605206172

> <r_i_glide_ligand_efficiency>
-0.415710336225651

> <r_i_glide_ligand_efficiency_sa>
-1.0894692850974

> <r_i_glide_ligand_efficiency_ln>
-1.92341157034007

> <r_i_glide_gscore>
-7.48278605206172

> <r_i_glide_lipo>
-1.17145823716949

> <r_i_glide_hbond>
-0.809762363333499

> <r_i_glide_metal>
0

> <r_i_glide_rewards>
-2.61973347097346

> <r_i_glide_evdw>
-26.2657279968262

> <r_i_glide_ecoul>
-13.3702211380005

> <r_i_glide_erotb>
0.436987589956113

> <r_i_glide_esite>
0

> <r_i_glide_emodel>
-56.3076265085182

> <r_i_glide_energy>
-39.6359491348267

> <r_i_glide_einternal>
4.44624137878418

> <i_i_glide_confnum>
4

> <i_i_glide_posenum>
58

> <r_i_glide_eff_state_penalty>
0

> <s_user_duplicate_titles>
CHEMBL2431_lig1039

> <s_m_subgroup_title>
dock_pv

> <s_m_subgroupid>
dock_pv

> <b_m_subgroup_collapsed>
1

$$$$
CHEMBL2431_lig1211
                    3D
 Schrodinger Suite 2021-1.
 38 41  0  0  1  0            999 V2000
   22.2354  -18.1471    9.2345 C   0  0  0  0  0  0
   22.5210  -17.3013    8.1588 C   0  0  0  0  0  0
   22.6302  -15.9196    8.2970 C   0  0  0  0  0  0
   22.1210  -17.5909   10.5148 C   0  0  0  0  0  0
   22.2875  -16.2174   10.6987 C   0  0  0  0  0  0
   22.5098  -15.3926    9.5793 C   0  0  0  0  0  0
   22.4043  -14.0950   11.4112 N   0  0  0  0  0  0
   22.2628  -15.3262   11.8048 C   0  0  0  0  0  0
   22.0217  -19.6189    8.9898 C   0  0  0  0  0  0
   22.4421  -20.1680    7.8592 N   0  0  0  0  0  0
   21.4184  -20.5716    9.8369 C   0  0  0  0  0  0
   21.4070  -21.7491    9.1249 N   0  0  0  0  0  0
   22.0811  -21.4699    7.9264 C   0  0  0  0  0  0
   22.3098  -22.4156    7.0059 N   0  0  0  0  0  0
   21.8280  -23.6616    7.2614 C   0  0  0  0  0  0
   21.1324  -24.0011    8.4207 C   0  0  0  0  0  0
   20.9210  -23.0087    9.3754 C   0  0  0  0  0  0
   21.7154  -20.7411   12.3207 C   0  0  0  0  0  0
   23.2088  -20.3843   12.1564 C   0  0  0  0  0  0
   21.5631  -22.1822   12.8351 C   0  0  0  0  0  0
   22.5210  -14.1034   10.0735 N   0  0  0  0  0  0
   20.9210  -20.5058   11.1170 N   0  0  0  0  0  0
   22.6001  -17.7142    7.1634 H   0  0  0  0  0  0
   22.7718  -15.2950    7.4380 H   0  0  0  0  0  0
   21.8261  -18.1816   11.3604 H   0  0  0  0  0  0
   22.1211  -15.5684   12.8473 H   0  0  0  0  0  0
   22.0078  -24.4011    6.4940 H   0  0  0  0  0  0
   20.7501  -25.0014    8.5762 H   0  0  0  0  0  0
   20.3765  -23.1616   10.2984 H   0  0  0  0  0  0
   21.3056  -20.0749   13.0807 H   0  0  0  0  0  0
   23.7210  -20.4950   13.0970 H   0  0  0  0  0  0
   23.6991  -21.0151   11.4152 H   0  0  0  0  0  0
   23.4025  -19.3593   11.8711 H   0  0  0  0  0  0
   22.1001  -22.3279   13.7727 H   0  0  0  0  0  0
   20.5210  -22.4283   13.0309 H   0  0  0  0  0  0
   21.9433  -22.9098   12.1178 H   0  0  0  0  0  0
   22.6190  -13.2290    9.5673 H   0  0  0  0  0  0
   19.9408  -20.7324   11.2757 H   0  0  0  0  0  0
  1  2  2  0  0  0
  1  4  1  0  0  0
  1  9  1  0  0  0
  2  3  1  0  0  0
  2 23  1  0  0  0
  3  6  2  0  0  0
  3 24  1  0  0  0
  4  5  2  0  0  0
  4 25  1  0  0  0
  5  6  1  0  0  0
  5  8  1  0  0  0
  6 21  1  0  0  0
  7  8  2  0  0  0
  7 21  1  0  0  0
  8 26  1  0  0  0
  9 10  1  0  0  0
  9 11  2  0  0  0
 10 13  2  0  0  0
 11 12  1  0  0  0
 11 22  1  0  0  0
 12 13  1  0  0  0
 12 17  1  0  0  0
 13 14  1  0  0  0
 14 15  2  0  0  0
 15 16  1  0  0  0
 15 27  1  0  0  0
 16 17  2  0  0  0
 16 28  1  0  0  0
 17 29  1  0  0  0
 18 19  1  0  0  0
 18 20  1  0  0  0
 18 22  1  0  0  0
 18 30  1  0  0  0
 19 31  1  0  0  0
 19 32  1  0  0  0
 19 33  1  0  0  0
 20 34  1  0  0  0
 20 35  1  0  0  0
 20 36  1  0  0  0
 21 37  1  0  0  0
 22 38  1  0  0  0
M  END
> <s_m_entry_id>
4531

> <s_m_entry_name>
dock_pv.7

> <s_m_Source_Path>
/home/csk/Desktop/cluster/DUD-E-result/akt2

> <s_m_Source_File>
dock_pv.maegz

> <i_m_Source_File_Index>
7

> <chembl_id>
CHEMBL1682553

> <chembl_pref_name>
None

> <i_lp_mmshare_version>
53161

> <i_f3d_flags>
0

> <r_lp_tautomer_probability>
0.980392156862745

> <s_lp_Force_Field>
OPLS_2005

> <r_lp_Energy>
18.916809

> <b_lp_Chiralities_Consistent>
1

> <s_lp_Variant>
CHEMBL2431_lig1211-1

> <s_i_glide_gridfile>
glide-grid_3d0e

> <i_i_glide_lignum>
1752

> <i_i_glide_rotatable_bonds>
3

> <r_i_docking_score>
-7.44453880681047

> <r_i_glide_ligand_efficiency>
-0.338388127582294

> <r_i_glide_ligand_efficiency_sa>
-0.948176841535469

> <r_i_glide_ligand_efficiency_ln>
-1.81971683053528

> <r_i_glide_gscore>
-7.44453880681047

> <r_i_glide_lipo>
-1.69467202291681

> <r_i_glide_hbond>
-0.697257714481948

> <r_i_glide_metal>
0

> <r_i_glide_rewards>
-2.63530847533706

> <r_i_glide_evdw>
-33.212574005127

> <r_i_glide_ecoul>
-6.10616588592529

> <r_i_glide_erotb>
0.299052428834395

> <r_i_glide_esite>
-0.139799439763906

> <r_i_glide_emodel>
-55.7981158074285

> <r_i_glide_energy>
-39.3187398910522

> <r_i_glide_einternal>
2.66697525978088

> <i_i_glide_confnum>
6

> <i_i_glide_posenum>
396

> <r_i_glide_eff_state_penalty>
0

> <s_user_duplicate_titles>
CHEMBL2431_lig1211,CHEMBL2431_lig1211

> <s_m_subgroup_title>
dock_pv

> <s_m_subgroupid>
dock_pv

> <b_m_subgroup_collapsed>
1

$$$$
CHEMBL2431_lig1067
                    3D
 Schrodinger Suite 2021-1.
 45 47  0  0  1  0            999 V2000
   23.0200  -22.3036    6.5751 O   0  0  0  0  0  0
   20.1208  -24.0956    5.2366 O   0  0  0  0  0  0
   21.0046  -22.6256    7.5789 N   0  0  0  0  0  0
   22.5173  -14.1381   10.9748 N   0  0  0  0  0  0
   22.3515  -17.9386    8.9750 C   0  0  0  0  0  0
   22.0771  -20.4606    7.7606 C   0  0  0  0  0  0
   22.4915  -16.6285    9.6643 C   0  0  0  0  0  0
   22.0620  -21.8708    7.2164 C   0  0  0  0  0  0
   23.0476  -18.2356    7.7977 C   0  0  0  0  0  0
   21.4850  -18.8949    9.5048 C   0  0  0  0  0  0
   22.9195  -19.4905    7.1997 C   0  0  0  0  0  0
   21.3312  -20.1295    8.9002 C   0  0  0  0  0  0
   20.9218  -24.0942    7.5767 C   0  0  2  0  0  0
   22.5211  -15.4343    8.9369 C   0  0  0  0  0  0
   22.5210  -16.5462   11.0662 C   0  0  0  0  0  0
   21.9189  -24.7667    8.5642 C   0  0  0  0  0  0
   21.7391  -24.4275   10.0487 C   0  0  0  0  0  0
   22.5211  -14.2228    9.6219 C   0  0  0  0  0  0
   22.5215  -15.2937   11.6786 C   0  0  0  0  0  0
   20.9737  -24.7400    6.1670 C   0  0  0  0  0  0
   21.3209  -25.4152   10.9452 C   0  0  0  0  0  0
   21.9908  -23.1379   10.5241 C   0  0  0  0  0  0
   21.0817  -25.0974   12.2815 C   0  0  0  0  0  0
   21.7209  -22.8083   11.8483 C   0  0  0  0  0  0
   21.2771  -23.7922   12.7249 C   0  0  0  0  0  0
   20.6550  -23.4416    4.7469 H   0  0  0  0  0  0
   20.2233  -22.1522    8.0066 H   0  0  0  0  0  0
   23.7161  -17.5065    7.3650 H   0  0  0  0  0  0
   20.9202  -18.6878   10.4012 H   0  0  0  0  0  0
   23.5045  -19.7172    6.3190 H   0  0  0  0  0  0
   20.6590  -20.8334    9.3723 H   0  0  0  0  0  0
   19.9249  -24.3057    7.9575 H   0  0  0  0  0  0
   22.4914  -15.4374    7.8573 H   0  0  0  0  0  0
   22.5045  -17.4397   11.6746 H   0  0  0  0  0  0
   22.9223  -24.4838    8.2763 H   0  0  0  0  0  0
   21.8764  -25.8510    8.4444 H   0  0  0  0  0  0
   22.5112  -13.2953    9.0751 H   0  0  0  0  0  0
   22.5198  -15.2073   12.7547 H   0  0  0  0  0  0
   21.9889  -24.7331    5.7690 H   0  0  0  0  0  0
   20.6421  -25.7777    6.2279 H   0  0  0  0  0  0
   21.1240  -26.4196   10.6000 H   0  0  0  0  0  0
   22.3787  -22.3778    9.8708 H   0  0  0  0  0  0
   20.7213  -25.8539   12.9617 H   0  0  0  0  0  0
   21.8743  -21.7981   12.1995 H   0  0  0  0  0  0
   21.0749  -23.5407   13.7557 H   0  0  0  0  0  0
  1  8  2  0  0  0
  2 20  1  0  0  0
  2 26  1  0  0  0
  3  8  1  0  0  0
  3 13  1  0  0  0
  3 27  1  0  0  0
  4 18  2  0  0  0
  4 19  1  0  0  0
  5  7  1  0  0  0
  5  9  2  0  0  0
  5 10  1  0  0  0
  6  8  1  0  0  0
  6 11  2  0  0  0
  6 12  1  0  0  0
  7 14  2  0  0  0
  7 15  1  0  0  0
  9 11  1  0  0  0
  9 28  1  0  0  0
 10 12  2  0  0  0
 10 29  1  0  0  0
 11 30  1  0  0  0
 12 31  1  0  0  0
 13 16  1  0  0  0
 13 20  1  0  0  0
 13 32  1  0  0  0
 14 18  1  0  0  0
 14 33  1  0  0  0
 15 19  2  0  0  0
 15 34  1  0  0  0
 16 17  1  0  0  0
 16 35  1  0  0  0
 16 36  1  0  0  0
 17 21  2  0  0  0
 17 22  1  0  0  0
 18 37  1  0  0  0
 19 38  1  0  0  0
 20 39  1  0  0  0
 20 40  1  0  0  0
 21 23  1  0  0  0
 21 41  1  0  0  0
 22 24  2  0  0  0
 22 42  1  0  0  0
 23 25  2  0  0  0
 23 43  1  0  0  0
 24 25  1  0  0  0
 24 44  1  0  0  0
 25 45  1  0  0  0
M  END
> <s_m_entry_id>
4532

> <s_m_entry_name>
dock_pv.8

> <s_m_Source_Path>
/home/csk/Desktop/cluster/DUD-E-result/akt2

> <s_m_Source_File>
dock_pv.maegz

> <i_m_Source_File_Index>
8

> <chembl_id>
CHEMBL1998545

> <chembl_pref_name>
None

> <i_lp_mmshare_version>
53161

> <i_f3d_flags>
0

> <r_lp_tautomer_probability>
1

> <s_lp_Force_Field>
OPLS_2005

> <r_lp_Energy>
17.302386

> <b_lp_Chiralities_Consistent>
1

> <s_lp_Variant>
CHEMBL2431_lig1067-1

> <s_i_glide_gridfile>
glide-grid_3d0e

> <i_i_glide_lignum>
1515

> <i_i_glide_rotatable_bonds>
8

> <r_i_docking_score>
-7.41167349960451

> <r_i_glide_ligand_efficiency>
-0.29646693998418

> <r_i_glide_ligand_efficiency_sa>
-0.866874590377312

> <r_i_glide_ligand_efficiency_ln>
-1.75678872933788

> <r_i_glide_gscore>
-7.41167349960451

> <r_i_glide_lipo>
-2.0857570447671

> <r_i_glide_hbond>
-0.516272092682978

> <r_i_glide_metal>
0

> <r_i_glide_rewards>
-2.74952578022165

> <r_i_glide_evdw>
-41.005786895752

> <r_i_glide_ecoul>
-6.88403558731079

> <r_i_glide_erotb>
1.02277610095143

> <r_i_glide_esite>
0

> <r_i_glide_emodel>
-66.9745313955452

> <r_i_glide_energy>
-47.8898224830627

> <r_i_glide_einternal>
7.18147659301758

> <i_i_glide_confnum>
23

> <i_i_glide_posenum>
232

> <r_i_glide_eff_state_penalty>
0

> <s_user_duplicate_titles>
CHEMBL2431_lig1067

> <s_m_subgroup_title>
dock_pv

> <s_m_subgroupid>
dock_pv

> <b_m_subgroup_collapsed>
1

$$$$
CHEMBL2431_lig1524
                    3D
 Schrodinger Suite 2021-1.
 26 29  0  0  1  0            999 V2000
   21.4633  -23.8842    8.1192 S   0  0  0  0  0  0
   23.3218  -19.7242    5.8971 O   0  0  0  0  0  0
   22.5209  -19.5906    8.0550 N   0  0  0  0  0  0
   21.9521  -19.1609   10.1380 N   0  0  0  0  0  0
   22.7607  -18.2894    8.2265 N   0  0  0  0  0  0
   22.4457  -21.6150    6.9077 N   0  0  0  0  0  0
   22.5191  -14.1781   11.2627 N   0  0  0  0  0  0
   22.0198  -20.0997    9.2289 C   0  0  0  0  0  0
   21.6906  -21.5282    9.2413 C   0  0  0  0  0  0
   21.9179  -22.2179    8.0445 C   0  0  0  0  0  0
   22.4053  -18.0925    9.4814 C   0  0  0  0  0  0
   22.8115  -20.3072    6.8492 C   0  0  0  0  0  0
   21.1700  -22.3683   10.2309 C   0  0  0  0  0  0
   22.4974  -16.7361   10.1041 C   0  0  0  0  0  0
   20.9675  -23.6685    9.7723 C   0  0  0  0  0  0
   22.5210  -15.5843    9.3040 C   0  0  0  0  0  0
   22.5210  -16.5805   11.4966 C   0  0  0  0  0  0
   22.5209  -14.3341    9.9171 C   0  0  0  0  0  0
   22.5212  -15.2941   12.0320 C   0  0  0  0  0  0
   22.5505  -22.1302    6.0441 H   0  0  0  0  0  0
   20.9154  -22.0364   11.2276 H   0  0  0  0  0  0
   20.5291  -24.4958   10.3147 H   0  0  0  0  0  0
   22.5039  -15.6514    8.2256 H   0  0  0  0  0  0
   22.5102  -17.4389   12.1519 H   0  0  0  0  0  0
   22.5146  -13.4299    9.3254 H   0  0  0  0  0  0
   22.5200  -15.1454   13.1010 H   0  0  0  0  0  0
  1 10  1  0  0  0
  1 15  1  0  0  0
  2 12  2  0  0  0
  3  5  1  0  0  0
  3  8  1  0  0  0
  3 12  1  0  0  0
  4  8  2  0  0  0
  4 11  1  0  0  0
  5 11  2  0  0  0
  6 10  1  0  0  0
  6 12  1  0  0  0
  6 20  1  0  0  0
  7 18  2  0  0  0
  7 19  1  0  0  0
  8  9  1  0  0  0
  9 10  2  0  0  0
  9 13  1  0  0  0
 11 14  1  0  0  0
 13 15  2  0  0  0
 13 21  1  0  0  0
 14 16  2  0  0  0
 14 17  1  0  0  0
 15 22  1  0  0  0
 16 18  1  0  0  0
 16 23  1  0  0  0
 17 19  2  0  0  0
 17 24  1  0  0  0
 18 25  1  0  0  0
 19 26  1  0  0  0
M  END
> <s_m_entry_id>
4533

> <s_m_entry_name>
dock_pv.9

> <s_m_Source_Path>
/home/csk/Desktop/cluster/DUD-E-result/akt2

> <s_m_Source_File>
dock_pv.maegz

> <i_m_Source_File_Index>
9

> <chembl_id>
CHEMBL1968151

> <chembl_pref_name>
None

> <i_lp_mmshare_version>
53161

> <i_f3d_flags>
0

> <r_lp_tautomer_probability>
1

> <s_lp_Force_Field>
OPLS_2005

> <r_lp_Energy>
21.580623

> <b_lp_Chiralities_Consistent>
1

> <s_lp_Variant>
CHEMBL2431_lig1524-1

> <s_i_glide_gridfile>
glide-grid_3d0e

> <i_i_glide_lignum>
2237

> <i_i_glide_rotatable_bonds>
1

> <r_i_docking_score>
-7.29418372685184

> <r_i_glide_ligand_efficiency>
-0.383904406676413

> <r_i_glide_ligand_efficiency_sa>
-1.02441115072152

> <r_i_glide_ligand_efficiency_ln>
-1.84923223945862

> <r_i_glide_gscore>
-7.29418372685184

> <r_i_glide_lipo>
-1.63395218273565

> <r_i_glide_hbond>
-0.30908754397794

> <r_i_glide_metal>
0

> <r_i_glide_rewards>
-2.89605229094274

> <r_i_glide_evdw>
-33.5248489379883

> <r_i_glide_ecoul>
-6.56084299087524

> <r_i_glide_erotb>
0.246375867650558

> <r_i_glide_esite>
-0.0410986813153742

> <r_i_glide_emodel>
-58.0342839544642

> <r_i_glide_energy>
-40.0856919288635

> <r_i_glide_einternal>
0.749624848365784

> <i_i_glide_confnum>
2

> <i_i_glide_posenum>
23

> <r_i_glide_eff_state_penalty>
0

> <s_user_duplicate_titles>
CHEMBL2431_lig1524

> <s_m_subgroup_title>
dock_pv

> <s_m_subgroupid>
dock_pv

> <b_m_subgroup_collapsed>
1

$$$$
CHEMBL2431_lig1175
                    3D
 Schrodinger Suite 2021-1.
 20 22  0  0  1  0            999 V2000
   22.5060  -15.0213   11.1793 C   0  0  0  0  0  0
   22.5209  -14.2264   10.0677 N   0  0  0  0  0  0
   22.4622  -14.5210   12.2970 O   0  0  0  0  0  0
   22.5210  -17.7724   11.8970 S   0  0  0  0  0  0
   22.0254  -21.0864   12.1779 Cl  0  0  0  0  0  0
   22.5210  -14.6318    8.7561 C   0  0  0  0  0  0
   22.5210  -15.8804    8.4383 N   0  0  0  0  0  0
   22.5211  -18.3747    6.5277 Cl  0  0  0  0  0  0
   22.4936  -16.8057    9.4475 C   0  0  0  0  0  0
   22.5210  -16.4328   10.7919 C   0  0  0  0  0  0
   22.3091  -18.8951   10.5547 C   0  0  0  0  0  0
   22.1208  -20.2838   10.6505 C   0  0  0  0  0  0
   22.0115  -21.0185    9.4759 C   0  0  0  0  0  0
   22.1189  -20.4087    8.2334 C   0  0  0  0  0  0
   22.3223  -19.0347    8.1148 C   0  0  0  0  0  0
   22.3803  -18.2318    9.2828 C   0  0  0  0  0  0
   22.5218  -13.2308   10.2478 H   0  0  0  0  0  0
   22.5210  -13.8583    7.9945 H   0  0  0  0  0  0
   21.8479  -22.0858    9.5315 H   0  0  0  0  0  0
   22.0502  -21.0178    7.3425 H   0  0  0  0  0  0
  1  3  2  0  0  0
  1 10  1  0  0  0
  1  2  1  0  0  0
  2  6  1  0  0  0
  2 17  1  0  0  0
  4 10  1  0  0  0
  4 11  1  0  0  0
  5 12  1  0  0  0
  6  7  2  0  0  0
  6 18  1  0  0  0
  7  9  1  0  0  0
  8 15  1  0  0  0
  9 10  2  0  0  0
  9 16  1  0  0  0
 11 12  1  0  0  0
 11 16  2  0  0  0
 12 13  2  0  0  0
 13 14  1  0  0  0
 13 19  1  0  0  0
 14 15  2  0  0  0
 14 20  1  0  0  0
 15 16  1  0  0  0
M  END
> <s_m_entry_id>
4534

> <s_m_entry_name>
dock_pv.10

> <s_m_Source_Path>
/home/csk/Desktop/cluster/DUD-E-result/akt2

> <s_m_Source_File>
dock_pv.maegz

> <i_m_Source_File_Index>
10

> <chembl_id>
CHEMBL583144

> <chembl_pref_name>
None

> <i_lp_mmshare_version>
53161

> <i_f3d_flags>
0

> <r_lp_tautomer_probability>
1

> <s_lp_Force_Field>
OPLS_2005

> <r_lp_Energy>
19.716585

> <b_lp_Chiralities_Consistent>
1

> <s_lp_Variant>
CHEMBL2431_lig1175-1

> <s_i_glide_gridfile>
glide-grid_3d0e

> <i_i_glide_lignum>
1695

> <i_i_glide_rotatable_bonds>
0

> <r_i_docking_score>
-7.29353010360225

> <r_i_glide_ligand_efficiency>
-0.45584563147514

> <r_i_glide_ligand_efficiency_sa>
-1.14865901213471

> <r_i_glide_ligand_efficiency_ln>
-1.93329584553073

> <r_i_glide_gscore>
-7.29353010360225

> <r_i_glide_lipo>
-1.56547049832971

> <r_i_glide_hbond>
-0.547217601410213

> <r_i_glide_metal>
0

> <r_i_glide_rewards>
-3.09719193939394

> <r_i_glide_evdw>
-26.1428279876709

> <r_i_glide_ecoul>
-5.17672443389893

> <r_i_glide_erotb>
0

> <r_i_glide_esite>
0

> <r_i_glide_emodel>
-45.7314131012895

> <r_i_glide_energy>
-31.3195524215698

> <r_i_glide_einternal>
0

> <i_i_glide_confnum>
1

> <i_i_glide_posenum>
11

> <r_i_glide_eff_state_penalty>
0

> <s_user_duplicate_titles>
CHEMBL2431_lig1175

> <s_m_subgroup_title>
dock_pv

> <s_m_subgroupid>
dock_pv

> <b_m_subgroup_collapsed>
1

$$$$
CHEMBL2431_lig745
                    3D
 Schrodinger Suite 2021-1.
 58 63  0  0  1  0            999 V2000
   23.3211  -16.8250    5.2150 N   0  0  0  0  0  0
   23.1947  -18.0135    5.7844 C   0  0  0  0  0  0
   23.3214  -18.9924    5.0980 O   0  0  0  0  0  0
   22.8552  -18.1584    7.2316 C   0  0  0  0  0  0
   22.9205  -17.0390    8.0537 C   0  0  0  0  0  0
   22.4940  -17.0740    9.3674 C   0  0  0  0  0  0
   22.0581  -18.2700    9.9148 C   0  0  0  0  0  0
   22.1208  -19.4329    9.1829 N   0  0  0  0  0  0
   21.9596  -20.7765    9.5118 C   0  0  0  0  0  0
   21.7794  -21.2790   10.9292 C   0  0  0  0  0  0
   21.2270  -22.5356   11.2029 C   0  0  0  0  0  0
   21.0518  -22.9923   12.5073 C   0  0  0  0  0  0
   21.3203  -22.1338   13.5606 C   0  0  0  0  0  0
   21.8476  -20.8727   13.3119 C   0  0  0  0  0  0
   22.1678  -20.4965   12.0220 C   0  0  0  0  0  0
   22.0256  -21.4463    8.2623 C   0  0  0  0  0  0
   22.3493  -20.6273    7.2836 N   0  0  0  0  0  0
   22.4650  -19.3935    7.8221 C   0  0  0  0  0  0
   21.8460  -22.8968    7.9023 C   0  0  0  0  0  0
   21.2315  -23.2709    6.6985 C   0  0  0  0  0  0
   21.1162  -24.6133    6.3387 C   0  0  0  0  0  0
   21.5815  -25.6302    7.1862 C   0  0  0  0  0  0
   22.1133  -25.2435    8.4245 C   0  0  0  0  0  0
   22.3189  -23.9061    8.7346 C   0  0  0  0  0  0
   21.5419  -27.1159    6.7208 C   0  0  0  0  0  0
   22.2104  -27.9607    7.7007 N   0  0  0  0  0  0
   20.2019  -27.7526    6.3031 C   0  0  0  0  0  0
   20.5837  -27.6046    4.8281 C   0  0  0  0  0  0
   22.0341  -27.4562    5.2949 C   0  0  0  0  0  0
   22.5042  -15.8210   10.1331 C   0  0  0  0  0  0
   22.4912  -14.5369    9.6179 C   0  0  0  0  0  0
   22.5026  -13.7172   10.6971 N   0  0  0  0  0  0
   22.5210  -14.3811   11.8632 N   0  0  0  0  0  0
   22.5173  -15.6433   11.5210 C   0  0  0  0  0  0
   23.3189  -15.9748    5.7581 H   0  0  0  0  0  0
   23.5468  -16.7835    4.2297 H   0  0  0  0  0  0
   23.2733  -16.0974    7.6629 H   0  0  0  0  0  0
   21.6265  -18.3066   10.8967 H   0  0  0  0  0  0
   20.7961  -23.1420   10.4261 H   0  0  0  0  0  0
   20.5952  -23.9525   12.6902 H   0  0  0  0  0  0
   21.1157  -22.4430   14.5752 H   0  0  0  0  0  0
   22.1000  -20.2156   14.1273 H   0  0  0  0  0  0
   22.7379  -19.5882   11.9205 H   0  0  0  0  0  0
   20.8672  -22.5152    6.0198 H   0  0  0  0  0  0
   20.6799  -24.8409    5.3795 H   0  0  0  0  0  0
   22.4677  -25.9718    9.1349 H   0  0  0  0  0  0
   22.8501  -23.6651    9.6398 H   0  0  0  0  0  0
   21.6353  -27.9605    8.5323 H   0  0  0  0  0  0
   22.1821  -28.9095    7.3623 H   0  0  0  0  0  0
   20.0807  -28.7936    6.6091 H   0  0  0  0  0  0
   19.3211  -27.2059    6.6328 H   0  0  0  0  0  0
   20.3812  -28.4764    4.2018 H   0  0  0  0  0  0
   20.1820  -26.7124    4.3486 H   0  0  0  0  0  0
   22.5963  -26.6627    4.8013 H   0  0  0  0  0  0
   22.6053  -28.3838    5.2207 H   0  0  0  0  0  0
   22.4778  -14.1432    8.6117 H   0  0  0  0  0  0
   22.5213  -12.7028   10.6290 H   0  0  0  0  0  0
   22.5258  -16.4295   12.2634 H   0  0  0  0  0  0
  1  2  1  0  0  0
  1 35  1  0  0  0
  1 36  1  0  0  0
  2  3  2  0  0  0
  2  4  1  0  0  0
  4  5  2  0  0  0
  4 18  1  0  0  0
  5  6  1  0  0  0
  5 37  1  0  0  0
  6  7  2  0  0  0
  6 30  1  0  0  0
  7  8  1  0  0  0
  7 38  1  0  0  0
  8  9  1  0  0  0
  8 18  1  0  0  0
  9 10  1  0  0  0
  9 16  2  0  0  0
 10 11  2  0  0  0
 10 15  1  0  0  0
 11 12  1  0  0  0
 11 39  1  0  0  0
 12 13  2  0  0  0
 12 40  1  0  0  0
 13 14  1  0  0  0
 13 41  1  0  0  0
 14 15  2  0  0  0
 14 42  1  0  0  0
 15 43  1  0  0  0
 16 17  1  0  0  0
 16 19  1  0  0  0
 17 18  2  0  0  0
 19 20  2  0  0  0
 19 24  1  0  0  0
 20 21  1  0  0  0
 20 44  1  0  0  0
 21 22  2  0  0  0
 21 45  1  0  0  0
 22 23  1  0  0  0
 22 25  1  0  0  0
 23 24  2  0  0  0
 23 46  1  0  0  0
 24 47  1  0  0  0
 25 26  1  0  0  0
 25 27  1  0  0  0
 25 29  1  0  0  0
 26 48  1  0  0  0
 26 49  1  0  0  0
 27 28  1  0  0  0
 27 50  1  0  0  0
 27 51  1  0  0  0
 28 29  1  0  0  0
 28 52  1  0  0  0
 28 53  1  0  0  0
 29 54  1  0  0  0
 29 55  1  0  0  0
 30 31  2  0  0  0
 30 34  1  0  0  0
 31 32  1  0  0  0
 31 56  1  0  0  0
 32 33  1  0  0  0
 32 57  1  0  0  0
 33 34  2  0  0  0
 34 58  1  0  0  0
M  END
> <s_m_entry_id>
4535

> <s_m_entry_name>
dock_pv.11

> <s_m_Source_Path>
/home/csk/Desktop/cluster/DUD-E-result/akt2

> <s_m_Source_File>
dock_pv.maegz

> <i_m_Source_File_Index>
11

> <chembl_id>
CHEMBL3699770

> <chembl_pref_name>
None

> <i_lp_mmshare_version>
53161

> <i_f3d_flags>
0

> <r_lp_tautomer_probability>
0.5

> <s_lp_Force_Field>
OPLS_2005

> <r_lp_Energy>
35.11286

> <b_lp_Chiralities_Consistent>
1

> <s_lp_Variant>
CHEMBL2431_lig745-1

> <s_i_glide_gridfile>
glide-grid_3d0e

> <i_i_glide_lignum>
1099

> <i_i_glide_rotatable_bonds>
5

> <r_i_docking_score>
-7.22049319442694

> <r_i_glide_ligand_efficiency>
-0.21236744689491

> <r_i_glide_ligand_efficiency_sa>
-0.687988086359221

> <r_i_glide_ligand_efficiency_ln>
-1.59520947462293

> <r_i_glide_gscore>
-7.22049319442694

> <r_i_glide_lipo>
-2.17502014356155

> <r_i_glide_hbond>
-0.752190319904975

> <r_i_glide_metal>
0

> <r_i_glide_rewards>
-1.59459343877153

> <r_i_glide_evdw>
-31.6421089172363

> <r_i_glide_ecoul>
-9.04188823699951

> <r_i_glide_erotb>
0.278837698419874

> <r_i_glide_esite>
-0.0391383091970165

> <r_i_glide_emodel>
-57.0607402447198

> <r_i_glide_energy>
-40.6839971542358

> <r_i_glide_einternal>
3.16626834869385

> <i_i_glide_confnum>
170

> <i_i_glide_posenum>
120

> <r_i_glide_eff_state_penalty>
0

> <s_user_duplicate_titles>
CHEMBL2431_lig745

> <s_m_subgroup_title>
dock_pv

> <s_m_subgroupid>
dock_pv

> <b_m_subgroup_collapsed>
1

$$$$
CHEMBL2431_lig1166
                    3D
 Schrodinger Suite 2021-1.
 39 42  0  0  1  0            999 V2000
   22.4492  -20.2207    7.9240 O   0  0  0  0  0  0
   22.6914  -24.0446   10.0180 O   0  0  0  0  0  0
   20.1211  -24.4950    4.6544 O   0  0  0  0  0  0
   21.5346  -24.4784    8.0929 N   0  0  0  0  0  0
   22.4581  -21.5924    7.6603 N   0  0  0  0  0  0
   22.5211  -14.7157   11.1770 N   0  0  0  0  0  0
   22.5209  -14.0950    9.9849 N   0  0  0  0  0  0
   22.1209  -20.0153    9.2268 C   0  0  0  0  0  0
   22.1035  -22.1991    8.7772 C   0  0  0  0  0  0
   22.2316  -18.6231    9.7643 C   0  0  0  0  0  0
   22.1210  -23.6355    9.0000 C   0  0  0  0  0  0
   21.8780  -21.2522    9.7879 C   0  0  0  0  0  0
   22.4425  -16.2379    9.4183 C   0  0  0  0  0  0
   22.5105  -16.0409   10.8307 C   0  0  0  0  0  0
   22.3154  -17.5329    8.8899 C   0  0  0  0  0  0
   22.3315  -18.4212   11.1458 C   0  0  0  0  0  0
   22.5193  -17.1470   11.6901 C   0  0  0  0  0  0
   22.5210  -14.9242    8.8938 C   0  0  0  0  0  0
   20.6609  -24.0359    6.9768 C   0  0  0  0  0  0
   21.5281  -25.9343    8.3871 C   0  0  0  0  0  0
   21.0029  -24.8378    5.6999 C   0  0  1  0  0  0
   21.8865  -26.7142    7.1092 C   0  0  0  0  0  0
   20.9821  -26.3531    5.9312 C   0  0  0  0  0  0
   20.4585  -23.6725    4.2549 H   0  0  0  0  0  0
   22.5257  -13.0821    9.9140 H   0  0  0  0  0  0
   21.6145  -21.4591   10.8155 H   0  0  0  0  0  0
   22.2588  -17.6831    7.8221 H   0  0  0  0  0  0
   22.2924  -19.2686   11.8152 H   0  0  0  0  0  0
   22.5922  -17.0095   12.7564 H   0  0  0  0  0  0
   22.5196  -14.5114    7.8968 H   0  0  0  0  0  0
   20.7634  -22.9848    6.7207 H   0  0  0  0  0  0
   19.6177  -24.2105    7.2280 H   0  0  0  0  0  0
   20.5233  -26.2176    8.6971 H   0  0  0  0  0  0
   22.2347  -26.2209    9.1681 H   0  0  0  0  0  0
   22.0001  -24.5583    5.3523 H   0  0  0  0  0  0
   21.8242  -27.7845    7.3096 H   0  0  0  0  0  0
   22.9211  -26.5208    6.8419 H   0  0  0  0  0  0
   19.9645  -26.6872    6.1403 H   0  0  0  0  0  0
   21.3073  -26.8789    5.0323 H   0  0  0  0  0  0
  1  5  1  0  0  0
  1  8  1  0  0  0
  2 11  2  0  0  0
  3 21  1  0  0  0
  3 24  1  0  0  0
  4 11  1  0  0  0
  4 19  1  0  0  0
  4 20  1  0  0  0
  5  9  2  0  0  0
  6  7  1  0  0  0
  6 14  2  0  0  0
  7 25  1  0  0  0
  7 18  1  0  0  0
  8 12  2  0  0  0
  8 10  1  0  0  0
  9 11  1  0  0  0
  9 12  1  0  0  0
 10 16  1  0  0  0
 10 15  2  0  0  0
 12 26  1  0  0  0
 13 15  1  0  0  0
 13 14  1  0  0  0
 13 18  2  0  0  0
 14 17  1  0  0  0
 15 27  1  0  0  0
 16 17  2  0  0  0
 16 28  1  0  0  0
 17 29  1  0  0  0
 18 30  1  0  0  0
 19 21  1  0  0  0
 19 31  1  0  0  0
 19 32  1  0  0  0
 20 22  1  0  0  0
 20 33  1  0  0  0
 20 34  1  0  0  0
 21 23  1  0  0  0
 21 35  1  0  0  0
 22 23  1  0  0  0
 22 36  1  0  0  0
 22 37  1  0  0  0
 23 38  1  0  0  0
 23 39  1  0  0  0
M  END
> <s_m_entry_id>
4536

> <s_m_entry_name>
dock_pv.12

> <s_m_Source_Path>
/home/csk/Desktop/cluster/DUD-E-result/akt2

> <s_m_Source_File>
dock_pv.maegz

> <i_m_Source_File_Index>
12

> <chembl_id>
CHEMBL1997340

> <chembl_pref_name>
None

> <i_lp_mmshare_version>
53161

> <i_f3d_flags>
0

> <r_lp_tautomer_probability>
0.0196078431372549

> <s_lp_Force_Field>
OPLS_2005

> <r_lp_Energy>
46.268019

> <b_lp_Chiralities_Consistent>
1

> <s_lp_Variant>
CHEMBL2431_lig1166-4

> <s_i_glide_gridfile>
glide-grid_3d0e

> <i_i_glide_lignum>
1680

> <i_i_glide_rotatable_bonds>
4

> <r_i_docking_score>
-7.21785015331584

> <r_i_glide_ligand_efficiency>
-0.313819571883298

> <r_i_glide_ligand_efficiency_sa>
-0.892461117177296

> <r_i_glide_ligand_efficiency_ln>
-1.74534161491849

> <r_i_glide_gscore>
-7.21785015331584

> <r_i_glide_lipo>
-1.67886735465064

> <r_i_glide_hbond>
-0.540989646937237

> <r_i_glide_metal>
0

> <r_i_glide_rewards>
-2.37101383025241

> <r_i_glide_evdw>
-35.6802864074707

> <r_i_glide_ecoul>
-9.17632293701172

> <r_i_glide_erotb>
0.570749084962497

> <r_i_glide_esite>
-0.0372656455127634

> <r_i_glide_emodel>
-63.4437668506291

> <r_i_glide_energy>
-44.8566093444824

> <r_i_glide_einternal>
2.18118143081665

> <i_i_glide_confnum>
1

> <i_i_glide_posenum>
202

> <r_i_glide_eff_state_penalty>
0

> <s_user_duplicate_titles>
CHEMBL2431_lig1166

> <s_m_subgroup_title>
dock_pv

> <s_m_subgroupid>
dock_pv

> <b_m_subgroup_collapsed>
1

$$$$
CHEMBL2431_lig102
                    3D
 Schrodinger Suite 2021-1.
 38 40  0  0  1  0            999 V2000
   21.8212  -23.9529    7.6148 C   0  0  0  0  0  0
   21.7178  -24.9413    8.6129 C   0  0  0  0  0  0
   21.6897  -24.5885    9.9616 C   0  0  0  0  0  0
   21.9045  -22.6028    7.9952 C   0  0  0  0  0  0
   21.8776  -22.2551    9.3517 C   0  0  0  0  0  0
   21.7611  -23.2431   10.3006 C   0  0  0  0  0  0
   21.7203  -22.6597   11.5369 N   0  0  0  0  0  0
   21.8489  -21.3265   11.4908 C   0  0  0  0  0  0
   21.9652  -20.9789   10.0728 C   0  0  0  0  0  0
   21.8644  -20.6160   12.4952 O   0  0  0  0  0  0
   22.1305  -19.7309    9.5553 C   0  0  0  0  0  0
   22.2925  -18.3918   10.1437 C   0  0  0  0  0  0
   21.8202  -24.2296    6.2330 N   0  0  0  0  0  0
   21.9383  -25.4163    5.6041 C   0  0  0  0  0  0
   21.8330  -25.2903    4.2873 N   0  0  0  0  0  0
   22.1210  -26.5136    6.1218 O   0  0  0  0  0  0
   22.3092  -18.2145   11.4977 N   0  0  0  0  0  0
   22.5205  -16.9101   11.8148 C   0  0  0  0  0  0
   22.5201  -16.1802   10.6374 C   0  0  0  0  0  0
   22.5228  -17.1262    9.5699 C   0  0  0  0  0  0
   22.5210  -14.7360   10.6343 C   0  0  0  0  0  0
   22.5375  -14.1471    9.4066 O   0  0  0  0  0  0
   22.4960  -14.0952   11.6794 O   0  0  0  0  0  0
   22.6691  -16.8538    8.0918 C   0  0  0  0  0  0
   21.6156  -25.9877    8.3746 H   0  0  0  0  0  0
   21.5752  -25.3565   10.7122 H   0  0  0  0  0  0
   21.9860  -21.8358    7.2390 H   0  0  0  0  0  0
   21.5316  -23.1532   12.3950 H   0  0  0  0  0  0
   22.1754  -19.6896    8.4777 H   0  0  0  0  0  0
   21.7352  -23.4223    5.6294 H   0  0  0  0  0  0
   21.8863  -26.1089    3.7030 H   0  0  0  0  0  0
   21.7212  -24.3676    3.8747 H   0  0  0  0  0  0
   22.1746  -18.9759   12.1602 H   0  0  0  0  0  0
   22.5223  -16.5935   12.8477 H   0  0  0  0  0  0
   22.5205  -13.1862    9.4974 H   0  0  0  0  0  0
   22.2829  -17.6624    7.4725 H   0  0  0  0  0  0
   22.1212  -15.9631    7.7940 H   0  0  0  0  0  0
   23.7084  -16.6730    7.8186 H   0  0  0  0  0  0
  1 13  1  0  0  0
  1  2  2  0  0  0
  1  4  1  0  0  0
  2  3  1  0  0  0
  2 25  1  0  0  0
  3  6  2  0  0  0
  3 26  1  0  0  0
  4  5  2  0  0  0
  4 27  1  0  0  0
  5  9  1  0  0  0
  5  6  1  0  0  0
  6  7  1  0  0  0
  7  8  1  0  0  0
  7 28  1  0  0  0
  8  9  1  0  0  0
  8 10  2  0  0  0
  9 11  2  0  0  0
 11 12  1  0  0  0
 11 29  1  0  0  0
 12 17  1  0  0  0
 12 20  2  0  0  0
 13 14  1  0  0  0
 13 30  1  0  0  0
 14 15  1  0  0  0
 14 16  2  0  0  0
 15 31  1  0  0  0
 15 32  1  0  0  0
 17 18  1  0  0  0
 17 33  1  0  0  0
 18 19  2  0  0  0
 18 34  1  0  0  0
 19 20  1  0  0  0
 19 21  1  0  0  0
 20 24  1  0  0  0
 21 22  1  0  0  0
 21 23  2  0  0  0
 22 35  1  0  0  0
 24 36  1  0  0  0
 24 37  1  0  0  0
 24 38  1  0  0  0
M  END
> <s_m_entry_id>
4537

> <s_m_entry_name>
dock_pv.13

> <s_m_Source_Path>
/home/csk/Desktop/cluster/DUD-E-result/akt2

> <s_m_Source_File>
dock_pv.maegz

> <i_m_Source_File_Index>
13

> <chembl_id>
CHEMBL228649

> <chembl_pref_name>
None

> <i_lp_mmshare_version>
53161

> <i_f3d_flags>
0

> <r_lp_tautomer_probability>
1

> <s_lp_Force_Field>
OPLS_2005

> <r_lp_Energy>
30.862957

> <b_lp_Chiralities_Consistent>
1

> <s_lp_Variant>
CHEMBL2431_lig102-1

> <s_i_glide_gridfile>
glide-grid_3d0e

> <i_i_glide_lignum>
163

> <i_i_glide_rotatable_bonds>
5

> <r_i_docking_score>
-7.21715229380212

> <r_i_glide_ligand_efficiency>
-0.300714678908422

> <r_i_glide_ligand_efficiency_sa>
-0.86741123196271

> <r_i_glide_ligand_efficiency_ln>
-1.72739571744605

> <r_i_glide_gscore>
-7.21715229380212

> <r_i_glide_lipo>
-1.30334690213392

> <r_i_glide_hbond>
-0.486062346518194

> <r_i_glide_metal>
0

> <r_i_glide_rewards>
-2.25081536011314

> <r_i_glide_evdw>
-38.2363700866699

> <r_i_glide_ecoul>
-10.1716756820679

> <r_i_glide_erotb>
0.528371092024603

> <r_i_glide_esite>
-0.26772892041779

> <r_i_glide_emodel>
-68.8203028200255

> <r_i_glide_energy>
-48.4080457687378

> <r_i_glide_einternal>
2.6876049041748

> <i_i_glide_confnum>
1

> <i_i_glide_posenum>
12

> <r_i_glide_eff_state_penalty>
0

> <s_user_duplicate_titles>
CHEMBL2431_lig102,385870

> <s_m_subgroup_title>
dock_pv

> <s_m_subgroupid>
dock_pv

> <b_m_subgroup_collapsed>
1

$$$$
CHEMBL2431_lig101
                    3D
 Schrodinger Suite 2021-1.
 44 46  0  0  1  0            999 V2000
   21.8258  -25.0708    5.8948 C   0  0  0  0  0  0
   21.7662  -26.3148    6.5530 C   0  0  0  0  0  0
   21.7170  -26.3700    7.9497 C   0  0  0  0  0  0
   21.7890  -23.8924    6.6449 C   0  0  0  0  0  0
   21.7483  -23.9585    8.0340 C   0  0  0  0  0  0
   21.7208  -25.1752    8.6673 C   0  0  0  0  0  0
   21.7153  -24.9461   10.0219 N   0  0  0  0  0  0
   21.7449  -23.6385   10.3310 C   0  0  0  0  0  0
   21.7472  -22.9264    9.0553 C   0  0  0  0  0  0
   21.7674  -23.2032   11.4804 O   0  0  0  0  0  0
   21.7690  -21.5847    8.8577 C   0  0  0  0  0  0
   21.7973  -20.4336    9.7502 C   0  0  0  0  0  0
   21.9065  -24.9036    4.5050 N   0  0  0  0  0  0
   22.3141  -25.7882    3.5801 C   0  0  0  0  0  0
   22.1969  -25.2929    2.3554 N   0  0  0  0  0  0
   22.7471  -26.9191    3.7863 O   0  0  0  0  0  0
   21.3361  -20.5255   11.0269 N   0  0  0  0  0  0
   21.5409  -19.3460   11.6645 C   0  0  0  0  0  0
   22.0939  -18.4198   10.7870 C   0  0  0  0  0  0
   22.2126  -19.1096    9.5452 C   0  0  0  0  0  0
   22.7746  -18.5750    8.2391 C   0  0  0  0  0  0
   22.4332  -16.9736   11.1548 C   0  0  0  0  0  0
   22.5586  -15.9723    9.9786 C   0  0  0  0  0  0
   22.3760  -14.4980   10.3505 C   0  0  0  0  0  0
   22.5221  -13.6957    9.2620 O   0  0  0  0  0  0
   22.1452  -14.0949   11.4874 O   0  0  0  0  0  0
   21.7589  -27.2420    6.0012 H   0  0  0  0  0  0
   21.6761  -27.3252    8.4523 H   0  0  0  0  0  0
   21.8183  -22.9348    6.1435 H   0  0  0  0  0  0
   21.6309  -25.6674   10.7204 H   0  0  0  0  0  0
   21.7919  -21.2712    7.8253 H   0  0  0  0  0  0
   21.7215  -23.9567    4.1748 H   0  0  0  0  0  0
   22.4359  -25.8674    1.5639 H   0  0  0  0  0  0
   21.8469  -24.3539    2.2177 H   0  0  0  0  0  0
   20.9588  -21.3697   11.4453 H   0  0  0  0  0  0
   21.2576  -19.2944   12.6999 H   0  0  0  0  0  0
   22.9401  -19.3483    7.4925 H   0  0  0  0  0  0
   22.1216  -17.8266    7.7954 H   0  0  0  0  0  0
   23.7389  -18.0924    8.3905 H   0  0  0  0  0  0
   23.3477  -16.9481   11.7346 H   0  0  0  0  0  0
   21.7212  -16.5992   11.8782 H   0  0  0  0  0  0
   21.7223  -16.1532    9.3041 H   0  0  0  0  0  0
   23.4741  -16.1235    9.4089 H   0  0  0  0  0  0
   22.5110  -12.7519    9.4971 H   0  0  0  0  0  0
  1 13  1  0  0  0
  1  2  2  0  0  0
  1  4  1  0  0  0
  2  3  1  0  0  0
  2 27  1  0  0  0
  3  6  2  0  0  0
  3 28  1  0  0  0
  4  5  2  0  0  0
  4 29  1  0  0  0
  5  9  1  0  0  0
  5  6  1  0  0  0
  6  7  1  0  0  0
  7  8  1  0  0  0
  7 30  1  0  0  0
  8  9  1  0  0  0
  8 10  2  0  0  0
  9 11  2  0  0  0
 11 12  1  0  0  0
 11 31  1  0  0  0
 12 17  1  0  0  0
 12 20  2  0  0  0
 13 14  1  0  0  0
 13 32  1  0  0  0
 14 15  1  0  0  0
 14 16  2  0  0  0
 15 33  1  0  0  0
 15 34  1  0  0  0
 17 18  1  0  0  0
 17 35  1  0  0  0
 18 19  2  0  0  0
 18 36  1  0  0  0
 19 20  1  0  0  0
 19 22  1  0  0  0
 20 21  1  0  0  0
 21 37  1  0  0  0
 21 38  1  0  0  0
 21 39  1  0  0  0
 22 23  1  0  0  0
 22 40  1  0  0  0
 22 41  1  0  0  0
 23 24  1  0  0  0
 23 42  1  0  0  0
 23 43  1  0  0  0
 24 25  1  0  0  0
 24 26  2  0  0  0
 25 44  1  0  0  0
M  END
> <s_m_entry_id>
4538

> <s_m_entry_name>
dock_pv.14

> <s_m_Source_Path>
/home/csk/Desktop/cluster/DUD-E-result/akt2

> <s_m_Source_File>
dock_pv.maegz

> <i_m_Source_File_Index>
14

> <chembl_id>
CHEMBL388183

> <chembl_pref_name>
None

> <i_lp_mmshare_version>
53161

> <i_f3d_flags>
0

> <r_lp_tautomer_probability>
1

> <s_lp_Force_Field>
OPLS_2005

> <r_lp_Energy>
26.710198

> <b_lp_Chiralities_Consistent>
1

> <s_lp_Variant>
CHEMBL2431_lig101-1

> <s_i_glide_gridfile>
glide-grid_3d0e

> <i_i_glide_lignum>
162

> <i_i_glide_rotatable_bonds>
7

> <r_i_docking_score>
-7.20740756182585

> <r_i_glide_ligand_efficiency>
-0.277207983147148

> <r_i_glide_ligand_efficiency_sa>
-0.821227559312684

> <r_i_glide_ligand_efficiency_ln>
-1.69263601646166

> <r_i_glide_gscore>
-7.20740756182585

> <r_i_glide_lipo>
-0.773594065452516

> <r_i_glide_hbond>
-0.432

> <r_i_glide_metal>
0

> <r_i_glide_rewards>
-2.12263438517057

> <r_i_glide_evdw>
-34.5302886962891

> <r_i_glide_ecoul>
-16.650671005249

> <r_i_glide_erotb>
0.760836745733252

> <r_i_glide_esite>
-0.415900771334217

> <r_i_glide_emodel>
-70.1428541557949

> <r_i_glide_energy>
-51.1809597015381

> <r_i_glide_einternal>
8.42879676818848

> <i_i_glide_confnum>
38

> <i_i_glide_posenum>
64

> <r_i_glide_eff_state_penalty>
0

> <s_user_duplicate_titles>
CHEMBL2431_lig101,385871

> <s_m_subgroup_title>
dock_pv

> <s_m_subgroupid>
dock_pv

> <b_m_subgroup_collapsed>
1

$$$$
CHEMBL2431_lig73
                    3D
 Schrodinger Suite 2021-1.
 47 49  0  0  1  0            999 V2000
   21.2814  -25.0297    5.9338 C   0  0  0  0  0  0
   21.4536  -26.2557    6.6013 C   0  0  0  0  0  0
   21.6810  -26.2760    7.9788 C   0  0  0  0  0  0
   21.3376  -23.8356    6.6614 C   0  0  0  0  0  0
   21.5437  -23.8561    8.0426 C   0  0  0  0  0  0
   21.7210  -25.0673    8.6711 C   0  0  0  0  0  0
   21.9272  -24.8360   10.0037 N   0  0  0  0  0  0
   21.9167  -23.5316   10.3132 C   0  0  0  0  0  0
   21.6299  -22.8080    9.0726 C   0  0  0  0  0  0
   22.1210  -23.1068   11.4469 O   0  0  0  0  0  0
   21.5102  -21.4497    8.9720 C   0  0  0  0  0  0
   21.6258  -20.4482   10.0377 C   0  0  0  0  0  0
   21.0753  -24.8950    4.5512 N   0  0  0  0  0  0
   20.6537  -25.8108    3.6638 C   0  0  0  0  0  0
   20.5229  -25.2950    2.4507 N   0  0  0  0  0  0
   20.3634  -26.9791    3.9012 O   0  0  0  0  0  0
   20.9210  -20.5392   11.2062 N   0  0  0  0  0  0
   21.2123  -19.4735   12.0106 C   0  0  0  0  0  0
   22.1090  -18.6225   11.3738 C   0  0  0  0  0  0
   22.3070  -19.2390   10.1243 C   0  0  0  0  0  0
   21.2060  -20.7626    7.6425 C   0  0  0  0  0  0
   22.6978  -17.3074   11.8743 C   0  0  0  0  0  0
   22.7627  -16.3448   10.7746 N   0  0  0  0  0  0
   22.3882  -15.0596   10.8330 C   0  0  0  0  0  0
   22.1210  -14.4950   11.8970 O   0  0  0  0  0  0
   22.3273  -14.3318    9.4733 C   0  0  0  0  0  0
   21.3210  -13.2950    9.4779 N   0  0  0  0  0  0
   21.4288  -27.1950    6.0714 H   0  0  0  0  0  0
   21.8097  -27.2186    8.4896 H   0  0  0  0  0  0
   21.2204  -22.9061    6.1283 H   0  0  0  0  0  0
   22.0423  -25.5587   10.6970 H   0  0  0  0  0  0
   21.2288  -23.9535    4.1937 H   0  0  0  0  0  0
   20.0909  -25.8437    1.7237 H   0  0  0  0  0  0
   20.6588  -24.3044    2.2984 H   0  0  0  0  0  0
   20.2671  -21.2842   11.4377 H   0  0  0  0  0  0
   20.7240  -19.4167   12.9708 H   0  0  0  0  0  0
   22.9210  -18.8403    9.3331 H   0  0  0  0  0  0
   20.9596  -19.7040    7.7460 H   0  0  0  0  0  0
   22.0573  -20.8430    6.9663 H   0  0  0  0  0  0
   20.3353  -21.2206    7.1748 H   0  0  0  0  0  0
   23.6922  -17.4561   12.2970 H   0  0  0  0  0  0
   22.1210  -16.8970   12.6970 H   0  0  0  0  0  0
   22.9645  -16.7318    9.8656 H   0  0  0  0  0  0
   22.1210  -15.0333    8.6632 H   0  0  0  0  0  0
   23.2976  -13.8757    9.2749 H   0  0  0  0  0  0
   21.7919  -12.3873    9.5715 H   0  0  0  0  0  0
   20.8349  -13.2452    8.5931 H   0  0  0  0  0  0
  1 13  1  0  0  0
  1  2  2  0  0  0
  1  4  1  0  0  0
  2  3  1  0  0  0
  2 28  1  0  0  0
  3  6  2  0  0  0
  3 29  1  0  0  0
  4  5  2  0  0  0
  4 30  1  0  0  0
  5  9  1  0  0  0
  5  6  1  0  0  0
  6  7  1  0  0  0
  7  8  1  0  0  0
  7 31  1  0  0  0
  8  9  1  0  0  0
  8 10  2  0  0  0
  9 11  2  0  0  0
 11 21  1  0  0  0
 11 12  1  0  0  0
 12 17  1  0  0  0
 12 20  2  0  0  0
 13 14  1  0  0  0
 13 32  1  0  0  0
 14 15  1  0  0  0
 14 16  2  0  0  0
 15 33  1  0  0  0
 15 34  1  0  0  0
 17 18  1  0  0  0
 17 35  1  0  0  0
 18 19  2  0  0  0
 18 36  1  0  0  0
 19 20  1  0  0  0
 19 22  1  0  0  0
 20 37  1  0  0  0
 21 38  1  0  0  0
 21 39  1  0  0  0
 21 40  1  0  0  0
 22 23  1  0  0  0
 22 41  1  0  0  0
 22 42  1  0  0  0
 23 24  1  0  0  0
 23 43  1  0  0  0
 24 25  2  0  0  0
 24 26  1  0  0  0
 26 27  1  0  0  0
 26 44  1  0  0  0
 26 45  1  0  0  0
 27 46  1  0  0  0
 27 47  1  0  0  0
M  END
> <s_m_entry_id>
4539

> <s_m_entry_name>
dock_pv.15

> <s_m_Source_Path>
/home/csk/Desktop/cluster/DUD-E-result/akt2

> <s_m_Source_File>
dock_pv.maegz

> <i_m_Source_File_Index>
15

> <chembl_id>
CHEMBL228812

> <chembl_pref_name>
None

> <i_lp_mmshare_version>
53161

> <i_f3d_flags>
0

> <r_lp_tautomer_probability>
1

> <s_lp_Force_Field>
OPLS_2005

> <r_lp_Energy>
35.552803

> <b_lp_Chiralities_Consistent>
1

> <s_lp_Variant>
CHEMBL2431_lig73-1

> <s_i_glide_gridfile>
glide-grid_3d0e

> <i_i_glide_lignum>
131

> <i_i_glide_rotatable_bonds>
7

> <r_i_docking_score>
-7.20005696746143

> <r_i_glide_ligand_efficiency>
-0.266668776572646

> <r_i_glide_ligand_efficiency_sa>
-0.80000632883904

> <r_i_glide_ligand_efficiency_ln>
-1.67605455980883

> <r_i_glide_gscore>
-7.20005696746143

> <r_i_glide_lipo>
-0.783765202957685

> <r_i_glide_hbond>
-0.9928067547912

> <r_i_glide_metal>
0

> <r_i_glide_rewards>
-1.3388009107015

> <r_i_glide_evdw>
-35.1837577819824

> <r_i_glide_ecoul>
-17.1232776641846

> <r_i_glide_erotb>
0.70993904626624

> <r_i_glide_esite>
-0.466943606550483

> <r_i_glide_emodel>
-72.5005512267797

> <r_i_glide_energy>
-52.307035446167

> <r_i_glide_einternal>
5.90705442428589

> <i_i_glide_confnum>
6

> <i_i_glide_posenum>
295

> <r_i_glide_eff_state_penalty>
0

> <s_user_duplicate_titles>
CHEMBL2431_lig73,385919

> <s_m_subgroup_title>
dock_pv

> <s_m_subgroupid>
dock_pv

> <b_m_subgroup_collapsed>
1

$$$$
CHEMBL2431_lig1312
                    3D
 Schrodinger Suite 2021-1.
 27 30  0  0  1  0            999 V2000
   22.2106  -18.6078    9.9378 C   0  0  0  0  0  0
   22.3196  -18.3738   11.3140 C   0  0  0  0  0  0
   22.5208  -17.0874   11.8238 C   0  0  0  0  0  0
   22.3146  -17.5451    9.0333 C   0  0  0  0  0  0
   22.4457  -16.2413    9.5247 C   0  0  0  0  0  0
   22.5162  -16.0066   10.9323 C   0  0  0  0  0  0
   22.5207  -14.0949   10.0258 N   0  0  0  0  0  0
   22.5211  -14.9489    8.9576 C   0  0  0  0  0  0
   22.0055  -19.9929    9.4164 C   0  0  0  0  0  0
   22.5210  -20.3646    8.2535 N   0  0  0  0  0  0
   21.2935  -21.0271   10.0321 C   0  0  0  0  0  0
   21.3990  -22.1046    9.1925 N   0  0  0  0  0  0
   22.1766  -21.6670    8.1081 C   0  0  0  0  0  0
   22.4990  -22.4833    7.0954 N   0  0  0  0  0  0
   22.0228  -23.7569    7.1524 C   0  0  0  0  0  0
   21.2395  -24.2474    8.1971 C   0  0  0  0  0  0
   20.9209  -23.3858    9.2454 C   0  0  0  0  0  0
   22.5211  -14.6734   11.2380 N   0  0  0  0  0  0
   22.2576  -19.2039   12.0029 H   0  0  0  0  0  0
   22.5902  -16.9151   12.8878 H   0  0  0  0  0  0
   22.2387  -17.7223    7.9715 H   0  0  0  0  0  0
   22.5194  -14.5675    7.9466 H   0  0  0  0  0  0
   20.7281  -21.0628   10.9549 H   0  0  0  0  0  0
   22.2851  -24.3945    6.3198 H   0  0  0  0  0  0
   20.8704  -25.2648    8.1972 H   0  0  0  0  0  0
   20.3030  -23.6542   10.0922 H   0  0  0  0  0  0
   22.5254  -13.0839    9.9230 H   0  0  0  0  0  0
  1  2  1  0  0  0
  1  9  1  0  0  0
  1  4  2  0  0  0
  2  3  2  0  0  0
  2 19  1  0  0  0
  3  6  1  0  0  0
  3 20  1  0  0  0
  4 21  1  0  0  0
  4  5  1  0  0  0
  5  6  1  0  0  0
  5  8  2  0  0  0
  6 18  2  0  0  0
  7 27  1  0  0  0
  7 18  1  0  0  0
  7  8  1  0  0  0
  8 22  1  0  0  0
  9 10  1  0  0  0
  9 11  2  0  0  0
 10 13  2  0  0  0
 11 12  1  0  0  0
 11 23  1  0  0  0
 12 13  1  0  0  0
 12 17  1  0  0  0
 13 14  1  0  0  0
 14 15  2  0  0  0
 15 16  1  0  0  0
 15 24  1  0  0  0
 16 17  2  0  0  0
 16 25  1  0  0  0
 17 26  1  0  0  0
M  END
> <s_m_entry_id>
4541

> <s_m_entry_name>
dock_pv.17

> <s_m_Source_Path>
/home/csk/Desktop/cluster/DUD-E-result/akt2

> <s_m_Source_File>
dock_pv.maegz

> <i_m_Source_File_Index>
17

> <chembl_id>
CHEMBL1682540

> <chembl_pref_name>
None

> <i_lp_mmshare_version>
53161

> <i_f3d_flags>
0

> <r_lp_tautomer_probability>
0.0196078431372549

> <s_lp_Force_Field>
OPLS_2005

> <r_lp_Energy>
23.665613

> <b_lp_Chiralities_Consistent>
1

> <s_lp_Variant>
CHEMBL2431_lig1312-2

> <s_i_glide_gridfile>
glide-grid_3d0e

> <i_i_glide_lignum>
1906

> <i_i_glide_rotatable_bonds>
1

> <r_i_docking_score>
-7.13176409022344

> <r_i_glide_ligand_efficiency>
-0.396209116123524

> <r_i_glide_ligand_efficiency_sa>
-1.03836163038742

> <r_i_glide_ligand_efficiency_ln>
-1.83318318506408

> <r_i_glide_gscore>
-7.13176409022344

> <r_i_glide_lipo>
-1.61575832228404

> <r_i_glide_hbond>
-0.32

> <r_i_glide_metal>
0

> <r_i_glide_rewards>
-3.00123003383236

> <r_i_glide_evdw>
-31.2792339324951

> <r_i_glide_ecoul>
-5.99542713165283

> <r_i_glide_erotb>
0.310660707267627

> <r_i_glide_esite>
-0.0421606750019884

> <r_i_glide_emodel>
-53.0243777396836

> <r_i_glide_energy>
-37.2746610641479

> <r_i_glide_einternal>
0.986857712268829

> <i_i_glide_confnum>
2

> <i_i_glide_posenum>
198

> <r_i_glide_eff_state_penalty>
0

> <s_user_duplicate_titles>
CHEMBL2431_lig1312

> <s_m_subgroup_title>
dock_pv

> <s_m_subgroupid>
dock_pv

> <b_m_subgroup_collapsed>
1

$$$$
CHEMBL2431_lig823
                    3D
 Schrodinger Suite 2021-1.
 58 63  0  0  1  0            999 V2000
   23.6263  -17.2652    4.8082 C   0  0  0  0  0  0
   23.2457  -18.4462    5.4969 O   0  0  0  0  0  0
   22.9194  -18.3520    6.8359 C   0  0  0  0  0  0
   22.9222  -17.1762    7.5941 C   0  0  0  0  0  0
   22.6141  -17.1882    8.9500 C   0  0  0  0  0  0
   22.3332  -18.4014    9.5681 C   0  0  0  0  0  0
   22.2552  -19.5653    8.8363 N   0  0  0  0  0  0
   22.0066  -20.8965    9.1762 C   0  0  0  0  0  0
   21.7074  -21.3453   10.5969 C   0  0  0  0  0  0
   21.0923  -20.4996   11.5380 C   0  0  0  0  0  0
   20.9213  -20.8947   12.8638 C   0  0  0  0  0  0
   21.2331  -22.1997   13.2318 C   0  0  0  0  0  0
   21.7210  -23.0954   12.2873 C   0  0  0  0  0  0
   22.0410  -22.6416   11.0078 C   0  0  0  0  0  0
   22.1219  -21.6005    7.9329 C   0  0  0  0  0  0
   22.4719  -20.7933    6.9523 N   0  0  0  0  0  0
   22.5528  -19.5571    7.4667 C   0  0  0  0  0  0
   21.9402  -23.0552    7.5371 C   0  0  0  0  0  0
   21.1701  -23.9493    8.2806 C   0  0  0  0  0  0
   21.0607  -25.2829    7.8952 C   0  0  0  0  0  0
   21.5886  -25.7451    6.6835 C   0  0  0  0  0  0
   22.3314  -24.8450    5.9171 C   0  0  0  0  0  0
   22.5239  -23.5384    6.3521 C   0  0  0  0  0  0
   21.3927  -27.2062    6.2013 C   0  0  0  0  0  0
   20.1213  -27.6949    6.7165 N   0  0  0  0  0  0
   21.5365  -27.5552    4.6992 C   0  0  0  0  0  0
   22.9728  -28.0160    4.9650 C   0  0  0  0  0  0
   22.5403  -28.2153    6.4221 C   0  0  0  0  0  0
   22.5702  -15.9249    9.7332 C   0  0  0  0  0  0
   22.5214  -14.6274    9.2498 C   0  0  0  0  0  0
   22.4611  -13.8179   10.3452 N   0  0  0  0  0  0
   22.4745  -14.4944   11.4978 N   0  0  0  0  0  0
   22.5334  -15.7509   11.1290 C   0  0  0  0  0  0
   23.8634  -17.4894    3.7695 H   0  0  0  0  0  0
   22.8437  -16.5063    4.8223 H   0  0  0  0  0  0
   24.5209  -16.8628    5.2672 H   0  0  0  0  0  0
   23.1656  -16.2346    7.1300 H   0  0  0  0  0  0
   22.1962  -18.4520   10.6291 H   0  0  0  0  0  0
   20.6762  -19.5476   11.2569 H   0  0  0  0  0  0
   20.4611  -20.2273   13.5765 H   0  0  0  0  0  0
   21.0477  -22.5320   14.2427 H   0  0  0  0  0  0
   21.9413  -24.1132   12.5739 H   0  0  0  0  0  0
   22.5426  -23.3178   10.3348 H   0  0  0  0  0  0
   20.6392  -23.6299    9.1640 H   0  0  0  0  0  0
   20.5210  -25.9534    8.5412 H   0  0  0  0  0  0
   22.7770  -25.1392    4.9797 H   0  0  0  0  0  0
   23.1145  -22.8889    5.7231 H   0  0  0  0  0  0
   20.2378  -27.9778    7.6796 H   0  0  0  0  0  0
   19.4492  -26.9398    6.7544 H   0  0  0  0  0  0
   20.8819  -28.3638    4.3647 H   0  0  0  0  0  0
   21.4172  -26.7250    4.0027 H   0  0  0  0  0  0
   23.2813  -28.9186    4.4366 H   0  0  0  0  0  0
   23.7209  -27.2353    4.8210 H   0  0  0  0  0  0
   23.2710  -27.9283    7.1781 H   0  0  0  0  0  0
   22.2040  -29.2319    6.6396 H   0  0  0  0  0  0
   22.5211  -14.2137    8.2523 H   0  0  0  0  0  0
   22.4442  -12.7993   10.2969 H   0  0  0  0  0  0
   22.5487  -16.5393   11.8665 H   0  0  0  0  0  0
  1  2  1  0  0  0
  1 34  1  0  0  0
  1 35  1  0  0  0
  1 36  1  0  0  0
  2  3  1  0  0  0
  3  4  2  0  0  0
  3 17  1  0  0  0
  4  5  1  0  0  0
  4 37  1  0  0  0
  5  6  2  0  0  0
  5 29  1  0  0  0
  6  7  1  0  0  0
  6 38  1  0  0  0
  7  8  1  0  0  0
  7 17  1  0  0  0
  8  9  1  0  0  0
  8 15  2  0  0  0
  9 10  2  0  0  0
  9 14  1  0  0  0
 10 11  1  0  0  0
 10 39  1  0  0  0
 11 12  2  0  0  0
 11 40  1  0  0  0
 12 13  1  0  0  0
 12 41  1  0  0  0
 13 14  2  0  0  0
 13 42  1  0  0  0
 14 43  1  0  0  0
 15 16  1  0  0  0
 15 18  1  0  0  0
 16 17  2  0  0  0
 18 19  2  0  0  0
 18 23  1  0  0  0
 19 20  1  0  0  0
 19 44  1  0  0  0
 20 21  2  0  0  0
 20 45  1  0  0  0
 21 22  1  0  0  0
 21 24  1  0  0  0
 22 23  2  0  0  0
 22 46  1  0  0  0
 23 47  1  0  0  0
 24 25  1  0  0  0
 24 26  1  0  0  0
 24 28  1  0  0  0
 25 48  1  0  0  0
 25 49  1  0  0  0
 26 27  1  0  0  0
 26 50  1  0  0  0
 26 51  1  0  0  0
 27 28  1  0  0  0
 27 52  1  0  0  0
 27 53  1  0  0  0
 28 54  1  0  0  0
 28 55  1  0  0  0
 29 30  2  0  0  0
 29 33  1  0  0  0
 30 31  1  0  0  0
 30 56  1  0  0  0
 31 32  1  0  0  0
 31 57  1  0  0  0
 32 33  2  0  0  0
 33 58  1  0  0  0
M  END
> <s_m_entry_id>
4542

> <s_m_entry_name>
dock_pv.18

> <s_m_Source_Path>
/home/csk/Desktop/cluster/DUD-E-result/akt2

> <s_m_Source_File>
dock_pv.maegz

> <i_m_Source_File_Index>
18

> <chembl_id>
CHEMBL3703169

> <chembl_pref_name>
None

> <i_lp_mmshare_version>
53161

> <i_f3d_flags>
0

> <r_lp_tautomer_probability>
0.5

> <s_lp_Force_Field>
OPLS_2005

> <r_lp_Energy>
39.147388

> <b_lp_Chiralities_Consistent>
1

> <s_lp_Variant>
CHEMBL2431_lig823-1

> <s_i_glide_gridfile>
glide-grid_3d0e

> <i_i_glide_lignum>
1188

> <i_i_glide_rotatable_bonds>
5

> <r_i_docking_score>
-7.1294255670379

> <r_i_glide_ligand_efficiency>
-0.216043199001148

> <r_i_glide_ligand_efficiency_sa>
-0.69296597675065

> <r_i_glide_ligand_efficiency_ln>
-1.58554733191925

> <r_i_glide_gscore>
-7.1294255670379

> <r_i_glide_lipo>
-2.28274170270682

> <r_i_glide_hbond>
-0.55346991458006

> <r_i_glide_metal>
0

> <r_i_glide_rewards>
-1.50853474598051

> <r_i_glide_evdw>
-43.2204170227051

> <r_i_glide_ecoul>
-5.98513269424438

> <r_i_glide_erotb>
0.294130305971078

> <r_i_glide_esite>
-0.0200187544696744

> <r_i_glide_emodel>
-67.7397030338045

> <r_i_glide_energy>
-49.2055497169495

> <r_i_glide_einternal>
5.33571100234985

> <i_i_glide_confnum>
119

> <i_i_glide_posenum>
325

> <r_i_glide_eff_state_penalty>
0

> <s_user_duplicate_titles>
CHEMBL2431_lig823

> <s_m_subgroup_title>
dock_pv

> <s_m_subgroupid>
dock_pv

> <b_m_subgroup_collapsed>
1

$$$$
CHEMBL2431_lig909
                    3D
 Schrodinger Suite 2021-1.
 34 37  0  0  1  0            999 V2000
   22.5741  -17.6629    8.6592 C   0  0  0  0  0  0
   22.6169  -16.4972    7.8977 C   0  0  0  0  0  0
   22.5214  -15.2296    8.4650 C   0  0  0  0  0  0
   22.5153  -17.5884   10.0537 C   0  0  0  0  0  0
   22.5208  -16.3213   10.6606 C   0  0  0  0  0  0
   22.5146  -15.1651    9.8494 C   0  0  0  0  0  0
   22.5031  -14.0950   10.7102 N   0  0  0  0  0  0
   22.5077  -14.4958   11.9923 N   0  0  0  0  0  0
   22.5212  -15.8034   11.9873 C   0  0  0  0  0  0
   22.5997  -18.9771    7.9679 C   0  0  0  0  0  0
   21.7905  -20.0872    8.1736 C   0  0  0  0  0  0
   22.2882  -21.0437    7.3257 N   0  0  0  0  0  0
   23.3206  -20.5623    6.6247 N   0  0  0  0  0  0
   23.4830  -19.2481    7.0186 N   0  0  0  0  0  0
   21.8126  -22.4064    7.1014 C   0  0  0  0  0  0
   21.9920  -23.4070    8.2468 C   0  0  0  0  0  0
   22.4976  -23.0451    9.5033 C   0  0  0  0  0  0
   22.5953  -23.9946   10.5176 C   0  0  0  0  0  0
   22.2079  -25.3094   10.2775 C   0  0  0  0  0  0
   21.7205  -25.6820    9.0287 C   0  0  0  0  0  0
   21.6087  -24.7316    8.0179 C   0  0  0  0  0  0
   22.6813  -16.5727    6.8214 H   0  0  0  0  0  0
   22.5190  -14.3367    7.8589 H   0  0  0  0  0  0
   22.4916  -18.4878   10.6517 H   0  0  0  0  0  0
   22.5178  -13.1118   10.4619 H   0  0  0  0  0  0
   22.5209  -16.3633   12.9101 H   0  0  0  0  0  0
   20.9517  -20.2822    8.8268 H   0  0  0  0  0  0
   22.3124  -22.8067    6.2158 H   0  0  0  0  0  0
   20.7540  -22.3386    6.8465 H   0  0  0  0  0  0
   22.8023  -22.0318    9.7155 H   0  0  0  0  0  0
   22.9530  -23.7115   11.4943 H   0  0  0  0  0  0
   22.2745  -26.0435   11.0677 H   0  0  0  0  0  0
   21.4021  -26.6995    8.8536 H   0  0  0  0  0  0
   21.2074  -25.0261    7.0594 H   0  0  0  0  0  0
  1 10  1  0  0  0
  1  2  2  0  0  0
  1  4  1  0  0  0
  2  3  1  0  0  0
  2 22  1  0  0  0
  3  6  2  0  0  0
  3 23  1  0  0  0
  4  5  2  0  0  0
  4 24  1  0  0  0
  5  6  1  0  0  0
  5  9  1  0  0  0
  6  7  1  0  0  0
  7  8  1  0  0  0
  7 25  1  0  0  0
  8  9  2  0  0  0
  9 26  1  0  0  0
 10 11  2  0  0  0
 10 14  1  0  0  0
 11 12  1  0  0  0
 11 27  1  0  0  0
 12 13  1  0  0  0
 12 15  1  0  0  0
 13 14  2  0  0  0
 15 16  1  0  0  0
 15 28  1  0  0  0
 15 29  1  0  0  0
 16 17  2  0  0  0
 16 21  1  0  0  0
 17 18  1  0  0  0
 17 30  1  0  0  0
 18 19  2  0  0  0
 18 31  1  0  0  0
 19 20  1  0  0  0
 19 32  1  0  0  0
 20 21  2  0  0  0
 20 33  1  0  0  0
 21 34  1  0  0  0
M  END
> <s_m_entry_id>
4543

> <s_m_entry_name>
dock_pv.19

> <s_m_Source_Path>
/home/csk/Desktop/cluster/DUD-E-result/akt2

> <s_m_Source_File>
dock_pv.maegz

> <i_m_Source_File_Index>
19

> <chembl_id>
CHEMBL1682345

> <chembl_pref_name>
None

> <i_lp_mmshare_version>
53161

> <i_f3d_flags>
0

> <r_lp_tautomer_probability>
0.980392156862745

> <s_lp_Force_Field>
OPLS_2005

> <r_lp_Energy>
12.438926

> <b_lp_Chiralities_Consistent>
1

> <s_lp_Variant>
CHEMBL2431_lig909-1

> <s_i_glide_gridfile>
glide-grid_3d0e

> <i_i_glide_lignum>
1279

> <i_i_glide_rotatable_bonds>
3

> <r_i_docking_score>
-7.06670993991853

> <r_i_glide_ligand_efficiency>
-0.336509997138978

> <r_i_glide_ligand_efficiency_sa>
-0.928405565758483

> <r_i_glide_ligand_efficiency_ln>
-1.74722975301288

> <r_i_glide_gscore>
-7.06670993991853

> <r_i_glide_lipo>
-2.00848859929957

> <r_i_glide_hbond>
-0.566791311812226

> <r_i_glide_metal>
0

> <r_i_glide_rewards>
-2.70116323199814

> <r_i_glide_evdw>
-33.6876907348633

> <r_i_glide_ecoul>
-4.02549648284912

> <r_i_glide_erotb>
0.497942212361944

> <r_i_glide_esite>
0

> <r_i_glide_emodel>
-51.2230909456646

> <r_i_glide_energy>
-37.7131872177124

> <r_i_glide_einternal>
4.80749559402466

> <i_i_glide_confnum>
2

> <i_i_glide_posenum>
280

> <r_i_glide_eff_state_penalty>
0

> <s_user_duplicate_titles>
CHEMBL2431_lig909,CHEMBL2431_lig909

> <s_m_subgroup_title>
dock_pv

> <s_m_subgroupid>
dock_pv

> <b_m_subgroup_collapsed>
1

$$$$
CHEMBL2431_lig1582
                    3D
 Schrodinger Suite 2021-1.
 45 47  0  0  1  0            999 V2000
   23.6587  -19.3599    5.8971 F   0  0  0  0  0  0
   23.7206  -22.0720    6.4071 O   0  0  0  0  0  0
   20.2959  -24.0951    5.3435 O   0  0  0  0  0  0
   21.8188  -22.7208    7.4406 N   0  0  0  0  0  0
   22.5073  -14.1429   11.0971 N   0  0  0  0  0  0
   22.5588  -20.4432    7.7265 C   0  0  0  0  0  0
   22.4992  -17.9317    9.0413 C   0  0  0  0  0  0
   23.0926  -19.2996    7.1170 C   0  0  0  0  0  0
   22.7376  -21.8073    7.1011 C   0  0  0  0  0  0
   23.0778  -18.0722    7.7748 C   0  0  0  0  0  0
   22.5199  -16.6257    9.7593 C   0  0  0  0  0  0
   21.9364  -20.2939    8.9757 C   0  0  0  0  0  0
   21.8968  -19.0583    9.6139 C   0  0  0  0  0  0
   21.9017  -24.1666    7.2102 C   0  0  1  0  0  0
   22.5212  -16.5542   11.1625 C   0  0  0  0  0  0
   22.5210  -15.4205    9.0473 C   0  0  0  0  0  0
   20.9725  -24.8842    8.2019 C   0  0  0  0  0  0
   21.3752  -24.7284    9.6619 C   0  0  0  0  0  0
   22.5208  -15.3077   11.7887 C   0  0  0  0  0  0
   22.5094  -14.2185    9.7441 C   0  0  0  0  0  0
   21.5631  -24.5706    5.7587 C   0  0  0  0  0  0
   20.9382  -23.6204   10.3904 C   0  0  0  0  0  0
   22.1211  -25.7273   10.2879 C   0  0  0  0  0  0
   21.2831  -23.4867   11.7304 C   0  0  0  0  0  0
   22.4112  -25.6208   11.6424 C   0  0  0  0  0  0
   22.0054  -24.4949   12.3520 C   0  0  0  0  0  0
   20.5082  -23.3816    4.7169 H   0  0  0  0  0  0
   21.0016  -22.4065    7.9399 H   0  0  0  0  0  0
   23.5462  -17.2302    7.2866 H   0  0  0  0  0  0
   21.5074  -21.1350    9.4948 H   0  0  0  0  0  0
   21.4083  -18.9904   10.5749 H   0  0  0  0  0  0
   22.9209  -24.4938    7.4199 H   0  0  0  0  0  0
   22.5291  -17.4488   11.7678 H   0  0  0  0  0  0
   22.5052  -15.3999    7.9683 H   0  0  0  0  0  0
   20.9027  -25.9485    7.9690 H   0  0  0  0  0  0
   19.9653  -24.4949    8.0694 H   0  0  0  0  0  0
   22.5206  -15.2308   12.8649 H   0  0  0  0  0  0
   22.4928  -13.2950    9.1929 H   0  0  0  0  0  0
   22.3188  -24.1520    5.0956 H   0  0  0  0  0  0
   21.6234  -25.6525    5.6286 H   0  0  0  0  0  0
   20.2979  -22.8803    9.9335 H   0  0  0  0  0  0
   22.4299  -26.6064    9.7417 H   0  0  0  0  0  0
   20.9289  -22.6357   12.2946 H   0  0  0  0  0  0
   22.9209  -26.4218   12.1511 H   0  0  0  0  0  0
   22.2193  -24.4221   13.4078 H   0  0  0  0  0  0
  1  8  1  0  0  0
  2  9  2  0  0  0
  3 21  1  0  0  0
  3 27  1  0  0  0
  4  9  1  0  0  0
  4 14  1  0  0  0
  4 28  1  0  0  0
  5 19  2  0  0  0
  5 20  1  0  0  0
  6  8  1  0  0  0
  6  9  1  0  0  0
  6 12  2  0  0  0
  7 10  1  0  0  0
  7 11  1  0  0  0
  7 13  2  0  0  0
  8 10  2  0  0  0
 10 29  1  0  0  0
 11 15  2  0  0  0
 11 16  1  0  0  0
 12 13  1  0  0  0
 12 30  1  0  0  0
 13 31  1  0  0  0
 14 17  1  0  0  0
 14 21  1  0  0  0
 14 32  1  0  0  0
 15 19  1  0  0  0
 15 33  1  0  0  0
 16 20  2  0  0  0
 16 34  1  0  0  0
 17 18  1  0  0  0
 17 35  1  0  0  0
 17 36  1  0  0  0
 18 22  2  0  0  0
 18 23  1  0  0  0
 19 37  1  0  0  0
 20 38  1  0  0  0
 21 39  1  0  0  0
 21 40  1  0  0  0
 22 24  1  0  0  0
 22 41  1  0  0  0
 23 25  2  0  0  0
 23 42  1  0  0  0
 24 26  2  0  0  0
 24 43  1  0  0  0
 25 26  1  0  0  0
 25 44  1  0  0  0
 26 45  1  0  0  0
M  END
> <s_m_entry_id>
4544

> <s_m_entry_name>
dock_pv.20

> <s_m_Source_Path>
/home/csk/Desktop/cluster/DUD-E-result/akt2

> <s_m_Source_File>
dock_pv.maegz

> <i_m_Source_File_Index>
20

> <chembl_id>
CHEMBL1969755

> <chembl_pref_name>
None

> <i_lp_mmshare_version>
53161

> <i_f3d_flags>
0

> <r_lp_tautomer_probability>
1

> <s_lp_Force_Field>
OPLS_2005

> <r_lp_Energy>
19.220758

> <b_lp_Chiralities_Consistent>
1

> <s_lp_Variant>
CHEMBL2431_lig1582-2

> <s_i_glide_gridfile>
glide-grid_3d0e

> <i_i_glide_lignum>
2324

> <i_i_glide_rotatable_bonds>
8

> <r_i_docking_score>
-7.06386347481709

> <r_i_glide_ligand_efficiency>
-0.271687056723734

> <r_i_glide_ligand_efficiency_sa>
-0.804871836507116

> <r_i_glide_ligand_efficiency_ln>
-1.65892515863422

> <r_i_glide_gscore>
-7.06386347481709

> <r_i_glide_lipo>
-2.30252068197951

> <r_i_glide_hbond>
-0.481390570451426

> <r_i_glide_metal>
0

> <r_i_glide_rewards>
-2.08874680425143

> <r_i_glide_evdw>
-36.8514060974121

> <r_i_glide_ecoul>
-8.46573638916016

> <r_i_glide_erotb>
0.931505338256756

> <r_i_glide_esite>
-0.0102799931468444

> <r_i_glide_emodel>
-62.9862674142735

> <r_i_glide_energy>
-45.3171424865723

> <r_i_glide_einternal>
7.07474899291992

> <i_i_glide_confnum>
24

> <i_i_glide_posenum>
332

> <r_i_glide_eff_state_penalty>
0

> <s_user_duplicate_titles>
CHEMBL2431_lig1582

> <s_m_subgroup_title>
dock_pv

> <s_m_subgroupid>
dock_pv

> <b_m_subgroup_collapsed>
1

$$$$
CHEMBL2431_lig1255
                    3D
 Schrodinger Suite 2021-1.
 42 44  0  0  1  0            999 V2000
   23.4685  -22.0707    6.3383 O   0  0  0  0  0  0
   20.1211  -24.4969    4.8124 O   0  0  0  0  0  0
   21.5396  -22.6573    7.3759 N   0  0  0  0  0  0
   22.5161  -14.1590   11.0973 N   0  0  0  0  0  0
   22.4497  -20.4424    7.7509 C   0  0  0  0  0  0
   22.4678  -17.9412    9.0380 C   0  0  0  0  0  0
   22.5355  -21.7993    7.0963 C   0  0  0  0  0  0
   22.5185  -16.6368    9.7534 C   0  0  0  0  0  0
   21.4096  -24.0264    6.8585 C   0  0  1  0  0  0
   21.7257  -20.2483    8.9359 C   0  0  0  0  0  0
   23.1399  -19.3590    7.1888 C   0  0  0  0  0  0
   21.7309  -19.0085    9.5654 C   0  0  0  0  0  0
   23.1561  -18.1246    7.8305 C   0  0  0  0  0  0
   21.6856  -25.1178    7.9065 C   0  0  0  0  0  0
   22.5211  -16.5715   11.1575 C   0  0  0  0  0  0
   22.5248  -15.4304    9.0438 C   0  0  0  0  0  0
   21.8979  -24.8174    9.2622 C   0  0  0  0  0  0
   21.7210  -26.4545    7.4890 C   0  0  0  0  0  0
   20.0146  -24.1959    6.1940 C   0  0  0  0  0  0
   22.5202  -15.3260   11.7854 C   0  0  0  0  0  0
   22.5195  -14.2264    9.7437 C   0  0  0  0  0  0
   22.1209  -25.8401   10.1819 C   0  0  0  0  0  0
   21.9424  -27.4772    8.4097 C   0  0  0  0  0  0
   22.1351  -27.1651    9.7528 C   0  0  0  0  0  0
   20.6095  -23.7819    4.3661 H   0  0  0  0  0  0
   20.8073  -22.3494    7.9961 H   0  0  0  0  0  0
   22.1742  -24.1803    6.0905 H   0  0  0  0  0  0
   21.1780  -21.0537    9.4085 H   0  0  0  0  0  0
   23.7016  -19.4801    6.2725 H   0  0  0  0  0  0
   21.1694  -18.8919   10.4818 H   0  0  0  0  0  0
   23.7280  -17.3159    7.3970 H   0  0  0  0  0  0
   22.5138  -17.4719   11.7549 H   0  0  0  0  0  0
   22.5133  -15.4168    7.9637 H   0  0  0  0  0  0
   21.8715  -23.7979    9.6203 H   0  0  0  0  0  0
   21.5670  -26.7047    6.4480 H   0  0  0  0  0  0
   19.4351  -24.9835    6.6773 H   0  0  0  0  0  0
   19.4084  -23.2956    6.2972 H   0  0  0  0  0  0
   22.5155  -15.2533   12.8629 H   0  0  0  0  0  0
   22.5079  -13.2950    9.2020 H   0  0  0  0  0  0
   22.2679  -25.6078   11.2264 H   0  0  0  0  0  0
   21.9512  -28.5083    8.0860 H   0  0  0  0  0  0
   22.2976  -27.9546   10.4731 H   0  0  0  0  0  0
  1  7  2  0  0  0
  2 19  1  0  0  0
  2 25  1  0  0  0
  3  7  1  0  0  0
  3  9  1  0  0  0
  3 26  1  0  0  0
  4 20  2  0  0  0
  4 21  1  0  0  0
  5  7  1  0  0  0
  5 10  2  0  0  0
  5 11  1  0  0  0
  6  8  1  0  0  0
  6 12  2  0  0  0
  6 13  1  0  0  0
  8 15  2  0  0  0
  8 16  1  0  0  0
  9 14  1  0  0  0
  9 19  1  0  0  0
  9 27  1  0  0  0
 10 12  1  0  0  0
 10 28  1  0  0  0
 11 13  2  0  0  0
 11 29  1  0  0  0
 12 30  1  0  0  0
 13 31  1  0  0  0
 14 17  2  0  0  0
 14 18  1  0  0  0
 15 20  1  0  0  0
 15 32  1  0  0  0
 16 21  2  0  0  0
 16 33  1  0  0  0
 17 22  1  0  0  0
 17 34  1  0  0  0
 18 23  2  0  0  0
 18 35  1  0  0  0
 19 36  1  0  0  0
 19 37  1  0  0  0
 20 38  1  0  0  0
 21 39  1  0  0  0
 22 24  2  0  0  0
 22 40  1  0  0  0
 23 24  1  0  0  0
 23 41  1  0  0  0
 24 42  1  0  0  0
M  END
> <s_m_entry_id>
4545

> <s_m_entry_name>
dock_pv.21

> <s_m_Source_Path>
/home/csk/Desktop/cluster/DUD-E-result/akt2

> <s_m_Source_File>
dock_pv.maegz

> <i_m_Source_File_Index>
21

> <chembl_id>
CHEMBL1974288

> <chembl_pref_name>
None

> <i_lp_mmshare_version>
53161

> <i_f3d_flags>
0

> <r_lp_tautomer_probability>
1

> <s_lp_Force_Field>
OPLS_2005

> <r_lp_Energy>
14.781449

> <b_lp_Chiralities_Consistent>
1

> <s_lp_Variant>
CHEMBL2431_lig1255-2

> <s_i_glide_gridfile>
glide-grid_3d0e

> <i_i_glide_lignum>
1819

> <i_i_glide_rotatable_bonds>
7

> <r_i_docking_score>
-7.05836749608934

> <r_i_glide_ligand_efficiency>
-0.294098645670389

> <r_i_glide_ligand_efficiency_sa>
-0.848327289793543

> <r_i_glide_ligand_efficiency_ln>
-1.68939122919379

> <r_i_glide_gscore>
-7.05836749608934

> <r_i_glide_lipo>
-2.16915461970378

> <r_i_glide_hbond>
-0.46270315424461

> <r_i_glide_metal>
0

> <r_i_glide_rewards>
-2.29277410324938

> <r_i_glide_evdw>
-41.1706161499023

> <r_i_glide_ecoul>
-6.63268947601318

> <r_i_glide_erotb>
0.919698610005527

> <r_i_glide_esite>
0

> <r_i_glide_emodel>
-65.9828330694114

> <r_i_glide_energy>
-47.8033056259155

> <r_i_glide_einternal>
7.07138299942017

> <i_i_glide_confnum>
18

> <i_i_glide_posenum>
326

> <r_i_glide_eff_state_penalty>
0

> <s_user_duplicate_titles>
CHEMBL2431_lig1255

> <s_m_subgroup_title>
dock_pv

> <s_m_subgroupid>
dock_pv

> <b_m_subgroup_collapsed>
1

$$$$
CHEMBL2431_lig68
                    3D
 Schrodinger Suite 2021-1.
 30 31  0  0  1  0            999 V2000
   21.6200  -19.9077    9.1855 C   0  0  0  0  0  0
   21.7769  -18.6631    9.7831 C   0  0  0  0  0  0
   22.4186  -17.6254    9.1006 C   0  0  0  0  0  0
   22.9230  -17.8555    7.8179 C   0  0  0  0  0  0
   22.7743  -19.1057    7.2210 C   0  0  0  0  0  0
   22.1174  -20.1386    7.8971 C   0  0  0  0  0  0
   22.5084  -16.2709    9.7231 C   0  0  0  0  0  0
   22.5300  -15.0436    9.0821 C   0  0  0  0  0  0
   22.5208  -14.0949   10.0650 N   0  0  0  0  0  0
   22.5198  -14.6186   11.2934 N   0  0  0  0  0  0
   22.5209  -15.9159   11.0859 C   0  0  0  0  0  0
   21.9671  -21.4897    7.1916 C   0  0  0  0  0  0
   21.1105  -22.5614    7.9093 C   0  0  0  0  0  0
   21.0710  -23.9249    7.1962 C   0  0  0  0  0  0
   20.4210  -23.8455    5.8970 N   0  0  0  0  0  0
   21.0934  -20.6748    9.7341 H   0  0  0  0  0  0
   21.3629  -18.4982   10.7655 H   0  0  0  0  0  0
   23.4187  -17.0636    7.2775 H   0  0  0  0  0  0
   23.1609  -19.2676    6.2262 H   0  0  0  0  0  0
   22.5199  -14.7654    8.0394 H   0  0  0  0  0  0
   22.5212  -13.0926    9.8982 H   0  0  0  0  0  0
   22.5019  -16.6088   11.9130 H   0  0  0  0  0  0
   22.9678  -21.8863    7.0156 H   0  0  0  0  0  0
   21.5299  -21.3003    6.2120 H   0  0  0  0  0  0
   20.0903  -22.1957    8.0509 H   0  0  0  0  0  0
   21.5117  -22.7323    8.9087 H   0  0  0  0  0  0
   20.5292  -24.6454    7.8098 H   0  0  0  0  0  0
   22.0821  -24.3154    7.0731 H   0  0  0  0  0  0
   20.9208  -23.1912    5.2882 H   0  0  0  0  0  0
   20.5202  -24.7384    5.4357 H   0  0  0  0  0  0
  1  6  1  0  0  0
  1  2  2  0  0  0
  1 16  1  0  0  0
  2  3  1  0  0  0
  2 17  1  0  0  0
  3  4  2  0  0  0
  3  7  1  0  0  0
  4  5  1  0  0  0
  4 18  1  0  0  0
  5  6  2  0  0  0
  5 19  1  0  0  0
  6 12  1  0  0  0
  7 11  1  0  0  0
  7  8  2  0  0  0
  8  9  1  0  0  0
  8 20  1  0  0  0
  9 10  1  0  0  0
  9 21  1  0  0  0
 10 11  2  0  0  0
 11 22  1  0  0  0
 12 13  1  0  0  0
 12 23  1  0  0  0
 12 24  1  0  0  0
 13 14  1  0  0  0
 13 25  1  0  0  0
 13 26  1  0  0  0
 14 15  1  0  0  0
 14 27  1  0  0  0
 14 28  1  0  0  0
 15 29  1  0  0  0
 15 30  1  0  0  0
M  END
> <s_m_entry_id>
4546

> <s_m_entry_name>
dock_pv.22

> <s_m_Source_Path>
/home/csk/Desktop/cluster/DUD-E-result/akt2

> <s_m_Source_File>
dock_pv.maegz

> <i_m_Source_File_Index>
22

> <chembl_id>
CHEMBL226870

> <chembl_pref_name>
None

> <i_lp_mmshare_version>
53161

> <i_f3d_flags>
0

> <r_lp_tautomer_probability>
0.5

> <s_lp_Force_Field>
OPLS_2005

> <r_lp_Energy>
8.623897

> <b_lp_Chiralities_Consistent>
1

> <s_lp_Variant>
CHEMBL2431_lig68-1

> <s_i_glide_gridfile>
glide-grid_3d0e

> <i_i_glide_lignum>
125

> <i_i_glide_rotatable_bonds>
4

> <r_i_docking_score>
-7.00903985725833

> <r_i_glide_ligand_efficiency>
-0.467269323817222

> <r_i_glide_ligand_efficiency_sa>
-1.15238524732203

> <r_i_glide_ligand_efficiency_ln>
-1.89022248274171

> <r_i_glide_gscore>
-7.00903985725833

> <r_i_glide_lipo>
-1.79712634812623

> <r_i_glide_hbond>
-0.532403641512862

> <r_i_glide_metal>
0

> <r_i_glide_rewards>
-3.02347848484849

> <r_i_glide_evdw>
-28.5284004211426

> <r_i_glide_ecoul>
-7.18750333786011

> <r_i_glide_erotb>
0.848514138965396

> <r_i_glide_esite>
0

> <r_i_glide_emodel>
-49.6620222823381

> <r_i_glide_energy>
-35.7159037590027

> <r_i_glide_einternal>
2.91983413696289

> <i_i_glide_confnum>
16

> <i_i_glide_posenum>
200

> <r_i_glide_eff_state_penalty>
0

> <s_user_duplicate_titles>
CHEMBL2431_lig68

> <s_m_subgroup_title>
dock_pv

> <s_m_subgroupid>
dock_pv

> <b_m_subgroup_collapsed>
1

$$$$
CHEMBL2431_lig1560
                    3D
 Schrodinger Suite 2021-1.
 50 53  0  0  1  0            999 V2000
   21.4794  -24.4537   12.2317 F   0  0  0  0  0  0
   19.7794  -24.0950    5.0970 O   0  0  0  0  0  0
   22.3645  -16.8747   10.2219 N   0  0  0  0  0  0
   22.5213  -18.1770   12.0630 N   0  0  0  0  0  0
   22.3873  -19.8975    8.0717 N   0  0  0  0  0  0
   22.3649  -14.4953   11.6711 N   0  0  0  0  0  0
   23.3210  -19.5348    5.8971 N   0  0  0  0  0  0
   22.8737  -21.7014    6.5616 N   0  0  0  0  0  0
   22.4430  -18.2008    9.8051 C   0  0  0  0  0  0
   22.3892  -18.9658   11.0164 C   0  0  0  0  0  0
   22.5201  -16.9104   11.6090 C   0  0  0  0  0  0
   22.5624  -18.5820    8.3601 C   0  0  0  0  0  0
   22.2290  -20.4513   11.3241 C   0  0  0  0  0  0
   22.1719  -15.6657    9.5827 C   0  0  0  0  0  0
   22.5210  -15.6851   12.2970 C   0  0  0  0  0  0
   23.0479  -17.6936    7.3885 C   0  0  0  0  0  0
   22.8453  -20.3385    6.8730 C   0  0  0  0  0  0
   21.5344  -20.8192   12.4904 C   0  0  0  0  0  0
   22.7365  -21.4904   10.5313 C   0  0  0  0  0  0
   22.1876  -14.4946   10.3327 C   0  0  0  0  0  0
   23.3210  -18.2056    6.1334 C   0  0  0  0  0  0
   21.3210  -22.1569   12.8152 C   0  0  0  0  0  0
   22.4464  -22.8274   10.8003 C   0  0  0  0  0  0
   21.7209  -23.1566   11.9388 C   0  0  0  0  0  0
   22.4380  -22.7847    7.4391 C   0  0  0  0  0  0
   21.7238  -23.9400    6.6813 C   0  0  0  0  0  0
   20.3537  -23.3885    6.1830 C   0  0  0  0  0  0
   22.6228  -24.4764    5.5258 C   0  0  0  0  0  0
   21.4605  -25.1052    7.6644 C   0  0  0  0  0  0
   20.2807  -23.8249    4.3125 H   0  0  0  0  0  0
   23.1326  -21.9623    5.6205 H   0  0  0  0  0  0
   21.9280  -15.6581    8.5363 H   0  0  0  0  0  0
   22.5210  -15.6552   13.3746 H   0  0  0  0  0  0
   23.3200  -16.6710    7.5698 H   0  0  0  0  0  0
   21.1343  -20.0688   13.1551 H   0  0  0  0  0  0
   23.3626  -21.2950    9.6855 H   0  0  0  0  0  0
   22.0228  -13.5311    9.8680 H   0  0  0  0  0  0
   23.7140  -17.5707    5.3520 H   0  0  0  0  0  0
   20.7747  -22.4170   13.7094 H   0  0  0  0  0  0
   22.8127  -23.6144   10.1597 H   0  0  0  0  0  0
   21.7555  -22.3970    8.1957 H   0  0  0  0  0  0
   23.3183  -23.1697    7.9526 H   0  0  0  0  0  0
   20.4393  -22.3414    5.8970 H   0  0  0  0  0  0
   19.6431  -23.3911    7.0059 H   0  0  0  0  0  0
   23.5534  -24.8941    5.8970 H   0  0  0  0  0  0
   22.1291  -25.2647    4.9574 H   0  0  0  0  0  0
   22.9210  -23.7020    4.8210 H   0  0  0  0  0  0
   22.3868  -25.5383    8.0395 H   0  0  0  0  0  0
   20.8859  -24.7805    8.5338 H   0  0  0  0  0  0
   20.8931  -25.9074    7.1904 H   0  0  0  0  0  0
  1 24  1  0  0  0
  2 27  1  0  0  0
  2 30  1  0  0  0
  3  9  1  0  0  0
  3 11  1  0  0  0
  3 14  1  0  0  0
  4 10  1  0  0  0
  4 11  2  0  0  0
  5 12  2  0  0  0
  5 17  1  0  0  0
  6 15  2  0  0  0
  6 20  1  0  0  0
  7 17  2  0  0  0
  7 21  1  0  0  0
  8 17  1  0  0  0
  8 25  1  0  0  0
  8 31  1  0  0  0
  9 10  2  0  0  0
  9 12  1  0  0  0
 10 13  1  0  0  0
 11 15  1  0  0  0
 12 16  1  0  0  0
 13 18  2  0  0  0
 13 19  1  0  0  0
 14 20  2  0  0  0
 14 32  1  0  0  0
 15 33  1  0  0  0
 16 21  2  0  0  0
 16 34  1  0  0  0
 18 22  1  0  0  0
 18 35  1  0  0  0
 19 23  2  0  0  0
 19 36  1  0  0  0
 20 37  1  0  0  0
 21 38  1  0  0  0
 22 24  2  0  0  0
 22 39  1  0  0  0
 23 24  1  0  0  0
 23 40  1  0  0  0
 25 26  1  0  0  0
 25 41  1  0  0  0
 25 42  1  0  0  0
 26 27  1  0  0  0
 26 28  1  0  0  0
 26 29  1  0  0  0
 27 43  1  0  0  0
 27 44  1  0  0  0
 28 45  1  0  0  0
 28 46  1  0  0  0
 28 47  1  0  0  0
 29 48  1  0  0  0
 29 49  1  0  0  0
 29 50  1  0  0  0
M  END
> <s_m_entry_id>
4547

> <s_m_entry_name>
dock_pv.23

> <s_m_Source_Path>
/home/csk/Desktop/cluster/DUD-E-result/akt2

> <s_m_Source_File>
dock_pv.maegz

> <i_m_Source_File_Index>
23

> <chembl_id>
CHEMBL1991395

> <chembl_pref_name>
None

> <i_lp_mmshare_version>
53161

> <i_f3d_flags>
0

> <r_lp_tautomer_probability>
0.999999987636

> <s_lp_Force_Field>
OPLS_2005

> <r_lp_Energy>
19.351846

> <b_lp_Chiralities_Consistent>
1

> <s_lp_Variant>
CHEMBL2431_lig1560-1

> <s_i_glide_gridfile>
glide-grid_3d0e

> <i_i_glide_lignum>
2296

> <i_i_glide_rotatable_bonds>
7

> <r_i_docking_score>
-6.97672277936632

> <r_i_glide_ligand_efficiency>
-0.240576647564356

> <r_i_glide_ligand_efficiency_sa>
-0.739127681349444

> <r_i_glide_ligand_efficiency_ln>
-1.5974926020498

> <r_i_glide_gscore>
-6.97672277936632

> <r_i_glide_lipo>
-1.89686639899776

> <r_i_glide_hbond>
-0.708979753539169

> <r_i_glide_metal>
0

> <r_i_glide_rewards>
-2.20740392346783

> <r_i_glide_evdw>
-36.8166923522949

> <r_i_glide_ecoul>
-6.50201082229614

> <r_i_glide_erotb>
0.760697061671895

> <r_i_glide_esite>
-0.108033524074292

> <r_i_glide_emodel>
-57.2755164159662

> <r_i_glide_energy>
-43.3187031745911

> <r_i_glide_einternal>
8.90335273742676

> <i_i_glide_confnum>
124

> <i_i_glide_posenum>
73

> <r_i_glide_eff_state_penalty>
0

> <s_user_duplicate_titles>
CHEMBL2431_lig1560

> <s_m_subgroup_title>
dock_pv

> <s_m_subgroupid>
dock_pv

> <b_m_subgroup_collapsed>
1

$$$$
CHEMBL2431_lig1028
                    3D
 Schrodinger Suite 2021-1.
 33 34  0  0  1  0            999 V2000
   22.3622  -22.6242    8.0465 O   0  0  0  0  0  0
   22.1935  -18.2958   10.2135 N   0  0  0  0  0  0
   22.2358  -15.9727    9.5983 N   0  0  0  0  0  0
   22.3921  -14.3033   11.3311 N   0  0  0  0  0  0
   22.1211  -13.6950    9.0974 N   0  0  0  0  0  0
   20.5210  -24.0950   10.9338 N   0  0  0  0  0  0
   22.3336  -16.9433   10.5452 C   0  0  0  0  0  0
   22.2921  -19.0228    9.0193 C   0  0  0  0  0  0
   22.3961  -21.2430    8.0147 C   0  0  0  0  0  0
   22.1210  -20.4075    9.1099 C   0  0  0  0  0  0
   22.2637  -14.6949   10.0425 C   0  0  0  0  0  0
   22.5210  -16.6388   11.8955 C   0  0  0  0  0  0
   22.6813  -18.4605    7.7986 C   0  0  0  0  0  0
   22.7829  -20.6596    6.8086 C   0  0  0  0  0  0
   22.5210  -15.2919   12.2485 C   0  0  0  0  0  0
   22.9211  -19.2769    6.6970 C   0  0  0  0  0  0
   22.1755  -23.3134    9.2836 C   0  0  0  0  0  0
   20.6929  -23.3710    9.6861 C   0  0  0  0  0  0
   22.0550  -18.8829   11.0202 H   0  0  0  0  0  0
   22.2689  -12.7258    9.3824 H   0  0  0  0  0  0
   22.0893  -13.9639    8.1277 H   0  0  0  0  0  0
   19.8695  -23.5492   11.4968 H   0  0  0  0  0  0
   19.9916  -24.9387   10.7086 H   0  0  0  0  0  0
   21.8412  -20.8328   10.0610 H   0  0  0  0  0  0
   22.6059  -17.4089   12.6462 H   0  0  0  0  0  0
   22.8394  -17.4002    7.6910 H   0  0  0  0  0  0
   22.9784  -21.2924    5.9543 H   0  0  0  0  0  0
   22.5767  -14.9873   13.2824 H   0  0  0  0  0  0
   23.2255  -18.8365    5.7600 H   0  0  0  0  0  0
   22.7953  -22.8887   10.0757 H   0  0  0  0  0  0
   22.5452  -24.3301    9.1445 H   0  0  0  0  0  0
   20.1209  -23.8616    8.8986 H   0  0  0  0  0  0
   20.2687  -22.3725    9.7921 H   0  0  0  0  0  0
  1  9  1  0  0  0
  1 17  1  0  0  0
  2  7  1  0  0  0
  2  8  1  0  0  0
  2 19  1  0  0  0
  3  7  1  0  0  0
  3 11  2  0  0  0
  4 11  1  0  0  0
  4 15  2  0  0  0
  5 11  1  0  0  0
  5 20  1  0  0  0
  5 21  1  0  0  0
  6 18  1  0  0  0
  6 22  1  0  0  0
  6 23  1  0  0  0
  7 12  2  0  0  0
  8 10  2  0  0  0
  8 13  1  0  0  0
  9 10  1  0  0  0
  9 14  2  0  0  0
 10 24  1  0  0  0
 12 15  1  0  0  0
 12 25  1  0  0  0
 13 16  2  0  0  0
 13 26  1  0  0  0
 14 16  1  0  0  0
 14 27  1  0  0  0
 15 28  1  0  0  0
 16 29  1  0  0  0
 17 18  1  0  0  0
 17 30  1  0  0  0
 17 31  1  0  0  0
 18 32  1  0  0  0
 18 33  1  0  0  0
M  END
> <s_m_entry_id>
4548

> <s_m_entry_name>
dock_pv.24

> <s_m_Source_Path>
/home/csk/Desktop/cluster/DUD-E-result/akt2

> <s_m_Source_File>
dock_pv.maegz

> <i_m_Source_File_Index>
24

> <chembl_id>
CHEMBL1995448

> <chembl_pref_name>
None

> <i_lp_mmshare_version>
53161

> <i_f3d_flags>
0

> <r_lp_tautomer_probability>
0.999999624730965

> <s_lp_Force_Field>
OPLS_2005

> <r_lp_Energy>
16.310228

> <b_lp_Chiralities_Consistent>
1

> <s_lp_Variant>
CHEMBL2431_lig1028-1

> <s_i_glide_gridfile>
glide-grid_3d0e

> <i_i_glide_lignum>
1461

> <i_i_glide_rotatable_bonds>
5

> <r_i_docking_score>
-6.93961959969779

> <r_i_glide_ligand_efficiency>
-0.385534422205433

> <r_i_glide_ligand_efficiency_sa>
-1.01038601819272

> <r_i_glide_ligand_efficiency_ln>
-1.783793434551

> <r_i_glide_gscore>
-6.93961959969779

> <r_i_glide_lipo>
-1.22847801388408

> <r_i_glide_hbond>
-0.893754347742411

> <r_i_glide_metal>
0

> <r_i_glide_rewards>
-2.98074476345154

> <r_i_glide_evdw>
-27.6715850830078

> <r_i_glide_ecoul>
-8.4039831161499

> <r_i_glide_erotb>
0.810008066481039

> <r_i_glide_esite>
-0.00247381952792825

> <r_i_glide_emodel>
-51.0334253238871

> <r_i_glide_energy>
-36.0755681991577

> <r_i_glide_einternal>
1.49950897693634

> <i_i_glide_confnum>
3

> <i_i_glide_posenum>
14

> <r_i_glide_eff_state_penalty>
0

> <s_user_duplicate_titles>
CHEMBL2431_lig1028

> <s_m_subgroup_title>
dock_pv

> <s_m_subgroupid>
dock_pv

> <b_m_subgroup_collapsed>
1

$$$$
CHEMBL2431_lig1557
                    3D
 Schrodinger Suite 2021-1.
 45 48  0  0  1  0            999 V2000
   21.0032  -21.7463    8.7902 S   0  0  0  0  0  0
   21.3210  -26.7133   10.4095 O   0  0  0  0  0  0
   22.4875  -21.3303    6.6970 N   0  0  0  0  0  0
   21.6160  -23.4572    6.6971 N   0  0  0  0  0  0
   22.5111  -14.3931   11.4993 N   0  0  0  0  0  0
   21.7677  -20.1666    8.5941 C   0  0  0  0  0  0
   22.5036  -20.1697    7.3865 C   0  0  0  0  0  0
   21.7647  -22.2312    7.2855 C   0  0  0  0  0  0
   22.4820  -17.9000    9.0158 C   0  0  0  0  0  0
   21.7375  -19.0272    9.4067 C   0  0  0  0  0  0
   23.1968  -19.0304    6.9725 C   0  0  0  0  0  0
   22.5159  -16.6865    9.8743 C   0  0  0  0  0  0
   23.1887  -17.9156    7.8059 C   0  0  0  0  0  0
   21.0904  -24.7500    7.1434 C   0  0  1  0  0  0
   21.4050  -25.8228    6.0765 C   0  0  0  0  0  0
   22.5205  -15.4025    9.3104 C   0  0  0  0  0  0
   22.5209  -16.7917   11.2725 C   0  0  0  0  0  0
   21.5377  -25.1260    8.5875 C   0  0  0  0  0  0
   22.5210  -25.7325    5.2286 C   0  0  0  0  0  0
   20.5528  -26.9246    5.9453 C   0  0  0  0  0  0
   22.5095  -14.2923   10.1491 C   0  0  0  0  0  0
   22.5212  -15.6307   12.0427 C   0  0  0  0  0  0
   22.7664  -26.7106    4.2693 C   0  0  0  0  0  0
   20.7957  -27.9084    4.9895 C   0  0  0  0  0  0
   21.4298  -26.6070    9.0080 C   0  0  0  0  0  0
   21.9013  -27.7960    4.1526 C   0  0  0  0  0  0
   20.3993  -26.4946   10.6176 H   0  0  0  0  0  0
   21.7219  -23.4453    5.6890 H   0  0  0  0  0  0
   21.1539  -19.0246   10.3170 H   0  0  0  0  0  0
   23.7265  -19.0218    6.0370 H   0  0  0  0  0  0
   23.7546  -17.0467    7.5024 H   0  0  0  0  0  0
   20.0034  -24.6476    7.1420 H   0  0  0  0  0  0
   22.5013  -15.2599    8.2402 H   0  0  0  0  0  0
   22.5246  -17.7565   11.7577 H   0  0  0  0  0  0
   22.5623  -24.7975    8.7616 H   0  0  0  0  0  0
   20.9255  -24.5386    9.2735 H   0  0  0  0  0  0
   23.2110  -24.9054    5.3044 H   0  0  0  0  0  0
   19.6938  -27.0200    6.5893 H   0  0  0  0  0  0
   22.4899  -13.2952    9.7361 H   0  0  0  0  0  0
   22.5104  -15.6831   13.1201 H   0  0  0  0  0  0
   23.6236  -26.6268    3.6182 H   0  0  0  0  0  0
   20.1302  -28.7552    4.8978 H   0  0  0  0  0  0
   20.5207  -27.0582    8.6188 H   0  0  0  0  0  0
   22.2588  -27.1968    8.6156 H   0  0  0  0  0  0
   22.0892  -28.5538    3.4056 H   0  0  0  0  0  0
  1  6  1  0  0  0
  1  8  1  0  0  0
  2 25  1  0  0  0
  2 27  1  0  0  0
  3  7  1  0  0  0
  3  8  2  0  0  0
  4  8  1  0  0  0
  4 14  1  0  0  0
  4 28  1  0  0  0
  5 21  2  0  0  0
  5 22  1  0  0  0
  6  7  1  0  0  0
  6 10  2  0  0  0
  7 11  2  0  0  0
  9 10  1  0  0  0
  9 12  1  0  0  0
  9 13  2  0  0  0
 10 29  1  0  0  0
 11 13  1  0  0  0
 11 30  1  0  0  0
 12 16  2  0  0  0
 12 17  1  0  0  0
 13 31  1  0  0  0
 14 15  1  0  0  0
 14 18  1  0  0  0
 14 32  1  0  0  0
 15 19  2  0  0  0
 15 20  1  0  0  0
 16 21  1  0  0  0
 16 33  1  0  0  0
 17 22  2  0  0  0
 17 34  1  0  0  0
 18 25  1  0  0  0
 18 35  1  0  0  0
 18 36  1  0  0  0
 19 23  1  0  0  0
 19 37  1  0  0  0
 20 24  2  0  0  0
 20 38  1  0  0  0
 21 39  1  0  0  0
 22 40  1  0  0  0
 23 26  2  0  0  0
 23 41  1  0  0  0
 24 26  1  0  0  0
 24 42  1  0  0  0
 25 43  1  0  0  0
 25 44  1  0  0  0
 26 45  1  0  0  0
M  END
> <s_m_entry_id>
4549

> <s_m_entry_name>
dock_pv.25

> <s_m_Source_Path>
/home/csk/Desktop/cluster/DUD-E-result/akt2

> <s_m_Source_File>
dock_pv.maegz

> <i_m_Source_File_Index>
25

> <chembl_id>
CHEMBL1982122

> <chembl_pref_name>
None

> <i_lp_mmshare_version>
53161

> <i_f3d_flags>
0

> <r_lp_tautomer_probability>
1

> <s_lp_Force_Field>
OPLS_2005

> <r_lp_Energy>
14.298278

> <b_lp_Chiralities_Consistent>
1

> <s_lp_Variant>
CHEMBL2431_lig1557-2

> <s_i_glide_gridfile>
glide-grid_3d0e

> <i_i_glide_lignum>
2292

> <i_i_glide_rotatable_bonds>
7

> <r_i_docking_score>
-6.93269234098621

> <r_i_glide_ligand_efficiency>
-0.266642013114854

> <r_i_glide_ligand_efficiency_sa>
-0.789925914667097

> <r_i_glide_ligand_efficiency_ln>
-1.62812004826163

> <r_i_glide_gscore>
-6.93269234098621

> <r_i_glide_lipo>
-2.36558261903607

> <r_i_glide_hbond>
-0.410438582445256

> <r_i_glide_metal>
0

> <r_i_glide_rewards>
-2.03625034848485

> <r_i_glide_evdw>
-42.2321166992188

> <r_i_glide_ecoul>
-5.70984983444214

> <r_i_glide_erotb>
0.88129388673511

> <r_i_glide_esite>
-0.0336313676278812

> <r_i_glide_emodel>
-64.600632715861

> <r_i_glide_energy>
-47.9419665336609

> <r_i_glide_einternal>
9.4132080078125

> <i_i_glide_confnum>
81

> <i_i_glide_posenum>
118

> <r_i_glide_eff_state_penalty>
0

> <s_user_duplicate_titles>
CHEMBL2431_lig1557

> <s_m_subgroup_title>
dock_pv

> <s_m_subgroupid>
dock_pv

> <b_m_subgroup_collapsed>
1

$$$$
CHEMBL2431_lig928
                    3D
 Schrodinger Suite 2021-1.
 49 52  0  0  1  0            999 V2000
   21.1891  -23.2842    7.6546 O   0  0  0  0  0  0
   20.1210  -24.0951    5.1018 O   0  0  0  0  0  0
   20.1215  -26.2451    1.5484 N   0  0  0  0  0  0
   19.9337  -20.2239    9.1712 N   0  0  0  0  0  0
   22.1340  -15.0077   11.2214 N   0  0  0  0  0  0
   20.5603  -27.3699    3.4472 C   0  0  0  0  0  0
   21.2354  -26.0976    3.5111 C   0  0  0  0  0  0
   19.8758  -27.4355    2.1921 C   0  0  0  0  0  0
   20.9309  -25.4573    2.3221 C   0  0  0  0  0  0
   20.4433  -28.4581    4.3285 C   0  0  0  0  0  0
   22.0370  -25.5136    4.6670 C   0  0  0  0  0  0
   19.1106  -28.5426    1.8095 C   0  0  0  0  0  0
   21.1737  -24.7958    5.7425 C   0  0  1  0  0  0
   19.6747  -29.5593    3.9508 C   0  0  0  0  0  0
   19.0259  -29.5963    2.7200 C   0  0  0  0  0  0
   21.1551  -21.9375    7.9680 C   0  0  0  0  0  0
   21.8581  -19.6020    7.8371 C   0  0  0  0  0  0
   21.9876  -23.7726    6.5721 C   0  0  0  0  0  0
   22.0437  -20.9510    7.4970 C   0  0  0  0  0  0
   20.1361  -21.5171    8.8232 C   0  0  0  0  0  0
   20.7724  -19.2951    8.6622 C   0  0  0  0  0  0
   22.7628  -18.5705    7.2846 C   0  0  0  0  0  0
   22.6819  -16.5725    8.9349 C   0  0  0  0  0  0
   23.0716  -17.3253    7.7193 C   0  0  0  0  0  0
   22.5212  -15.1838    8.8451 C   0  0  0  0  0  0
   22.5211  -17.1672   10.1929 C   0  0  0  0  0  0
   22.2413  -14.4440    9.9943 C   0  0  0  0  0  0
   22.2839  -16.3538   11.3026 C   0  0  0  0  0  0
   20.5496  -23.4570    4.5004 H   0  0  0  0  0  0
   19.7318  -25.9216    0.6743 H   0  0  0  0  0  0
   21.1895  -24.4618    1.9819 H   0  0  0  0  0  0
   20.9333  -28.4406    5.2908 H   0  0  0  0  0  0
   22.7502  -24.7957    4.2565 H   0  0  0  0  0  0
   22.6551  -26.2781    5.1386 H   0  0  0  0  0  0
   18.5897  -28.5806    0.8642 H   0  0  0  0  0  0
   20.7157  -25.5380    6.3990 H   0  0  0  0  0  0
   19.5739  -30.3963    4.6268 H   0  0  0  0  0  0
   18.4333  -30.4638    2.4645 H   0  0  0  0  0  0
   22.3533  -22.9991    5.8981 H   0  0  0  0  0  0
   22.8737  -24.2480    6.9934 H   0  0  0  0  0  0
   22.8713  -21.2138    6.8575 H   0  0  0  0  0  0
   19.4329  -22.2272    9.2363 H   0  0  0  0  0  0
   20.5209  -18.2744    8.9019 H   0  0  0  0  0  0
   23.2296  -18.8621    6.3540 H   0  0  0  0  0  0
   23.7489  -16.7750    7.0831 H   0  0  0  0  0  0
   22.6068  -14.6774    7.8968 H   0  0  0  0  0  0
   22.6428  -18.2331   10.3232 H   0  0  0  0  0  0
   22.1068  -13.3725    9.9401 H   0  0  0  0  0  0
   22.1916  -16.7865   12.2875 H   0  0  0  0  0  0
  1 16  1  0  0  0
  1 18  1  0  0  0
  2 13  1  0  0  0
  2 29  1  0  0  0
  3  8  1  0  0  0
  3  9  1  0  0  0
  3 30  1  0  0  0
  4 20  1  0  0  0
  4 21  2  0  0  0
  5 27  2  0  0  0
  5 28  1  0  0  0
  6  7  1  0  0  0
  6  8  1  0  0  0
  6 10  2  0  0  0
  7  9  2  0  0  0
  7 11  1  0  0  0
  8 12  2  0  0  0
  9 31  1  0  0  0
 10 14  1  0  0  0
 10 32  1  0  0  0
 11 13  1  0  0  0
 11 33  1  0  0  0
 11 34  1  0  0  0
 12 15  1  0  0  0
 12 35  1  0  0  0
 13 18  1  0  0  0
 13 36  1  0  0  0
 14 15  2  0  0  0
 14 37  1  0  0  0
 15 38  1  0  0  0
 16 19  1  0  0  0
 16 20  2  0  0  0
 17 19  2  0  0  0
 17 21  1  0  0  0
 17 22  1  0  0  0
 18 39  1  0  0  0
 18 40  1  0  0  0
 19 41  1  0  0  0
 20 42  1  0  0  0
 21 43  1  0  0  0
 22 24  2  3  0  0
 22 44  1  0  0  0
 23 24  1  0  0  0
 23 25  2  0  0  0
 23 26  1  0  0  0
 24 45  1  0  0  0
 25 27  1  0  0  0
 25 46  1  0  0  0
 26 28  2  0  0  0
 26 47  1  0  0  0
 27 48  1  0  0  0
 28 49  1  0  0  0
M  END
> <s_m_entry_id>
4550

> <s_m_entry_name>
dock_pv.26

> <s_m_Source_Path>
/home/csk/Desktop/cluster/DUD-E-result/akt2

> <s_m_Source_File>
dock_pv.maegz

> <i_m_Source_File_Index>
26

> <chembl_id>
CHEMBL1993584

> <chembl_pref_name>
None

> <i_lp_mmshare_version>
53161

> <i_f3d_flags>
0

> <r_lp_tautomer_probability>
1

> <s_lp_Force_Field>
OPLS_2005

> <r_lp_Energy>
22.414802

> <b_lp_Chiralities_Consistent>
1

> <s_lp_Variant>
CHEMBL2431_lig928-4

> <s_i_glide_gridfile>
glide-grid_3d0e

> <i_i_glide_lignum>
1312

> <i_i_glide_rotatable_bonds>
8

> <r_i_docking_score>
-6.92541431309291

> <r_i_glide_ligand_efficiency>
-0.247336225467604

> <r_i_glide_ligand_efficiency_sa>
-0.751058453766052

> <r_i_glide_ligand_efficiency_ln>
-1.59858896246171

> <r_i_glide_gscore>
-6.92541431309291

> <r_i_glide_lipo>
-2.70522572515426

> <r_i_glide_hbond>
0

> <r_i_glide_metal>
0

> <r_i_glide_rewards>
-1.53644164538278

> <r_i_glide_evdw>
-42.0837554931641

> <r_i_glide_ecoul>
-8.97850608825684

> <r_i_glide_erotb>
0.839497685459311

> <r_i_glide_esite>
-0.0722809401184496

> <r_i_glide_emodel>
-71.7994481560178

> <r_i_glide_energy>
-51.0622615814209

> <r_i_glide_einternal>
4.322021484375

> <i_i_glide_confnum>
25

> <i_i_glide_posenum>
386

> <r_i_glide_eff_state_penalty>
0

> <s_user_duplicate_titles>
CHEMBL2431_lig928

> <s_m_subgroup_title>
dock_pv

> <s_m_subgroupid>
dock_pv

> <b_m_subgroup_collapsed>
1

$$$$
CHEMBL2431_lig100
                    3D
 Schrodinger Suite 2021-1.
 47 49  0  0  1  0            999 V2000
   20.9527  -25.5908    5.4174 C   0  0  0  0  0  0
   21.1632  -26.7636    6.1714 C   0  0  0  0  0  0
   21.5317  -26.6799    7.5212 C   0  0  0  0  0  0
   21.0968  -24.3510    6.0433 C   0  0  0  0  0  0
   21.4871  -24.2745    7.3746 C   0  0  0  0  0  0
   21.6957  -25.4197    8.0986 C   0  0  0  0  0  0
   22.0482  -25.0488    9.3770 N   0  0  0  0  0  0
   22.1212  -23.7133    9.5333 C   0  0  0  0  0  0
   21.7474  -23.1400    8.2436 C   0  0  0  0  0  0
   22.4581  -23.1539   10.5759 O   0  0  0  0  0  0
   21.6778  -21.8257    7.9147 C   0  0  0  0  0  0
   21.8892  -20.5872    8.6509 C   0  0  0  0  0  0
   20.5934  -25.5391    4.0569 N   0  0  0  0  0  0
   20.5217  -26.5305    3.1550 C   0  0  0  0  0  0
   20.0658  -26.0950    1.9873 N   0  0  0  0  0  0
   20.8135  -27.7077    3.3368 O   0  0  0  0  0  0
   21.7433  -20.5275   10.0040 N   0  0  0  0  0  0
   22.0114  -19.2738   10.4699 C   0  0  0  0  0  0
   22.2720  -18.4577    9.3564 C   0  0  0  0  0  0
   22.1893  -19.2953    8.2198 C   0  0  0  0  0  0
   22.4995  -18.8804    6.7980 C   0  0  0  0  0  0
   22.6001  -16.9648    9.2891 C   0  0  0  0  0  0
   22.6084  -16.2163   10.6394 C   0  0  0  0  0  0
   22.4021  -14.6997   10.6230 C   0  0  0  0  0  0
   22.6122  -14.0954    9.4195 O   0  0  0  0  0  0
   22.1212  -14.0950   11.6486 O   0  0  0  0  0  0
   21.9717  -19.0377   11.9607 C   0  0  0  0  0  0
   21.0395  -27.7432    5.7370 H   0  0  0  0  0  0
   21.6769  -27.5818    8.0967 H   0  0  0  0  0  0
   20.9214  -23.4396    5.4971 H   0  0  0  0  0  0
   22.2008  -25.6932   10.1372 H   0  0  0  0  0  0
   21.4248  -21.6162    6.8848 H   0  0  0  0  0  0
   20.4686  -24.6062    3.6890 H   0  0  0  0  0  0
   20.0278  -26.7426    1.2170 H   0  0  0  0  0  0
   19.5887  -25.2019    1.8957 H   0  0  0  0  0  0
   21.5320  -21.3292   10.5866 H   0  0  0  0  0  0
   22.9136  -19.7026    6.2133 H   0  0  0  0  0  0
   21.6124  -18.4956    6.2969 H   0  0  0  0  0  0
   23.2531  -18.0938    6.7606 H   0  0  0  0  0  0
   21.9276  -16.4705    8.5855 H   0  0  0  0  0  0
   23.5934  -16.8566    8.8516 H   0  0  0  0  0  0
   23.4526  -16.4947   11.2662 H   0  0  0  0  0  0
   21.7205  -16.5350   11.1779 H   0  0  0  0  0  0
   22.5205  -13.1379    9.4972 H   0  0  0  0  0  0
   22.8190  -18.4493   12.3083 H   0  0  0  0  0  0
   21.0589  -18.5165   12.2472 H   0  0  0  0  0  0
   21.9947  -19.9667   12.5334 H   0  0  0  0  0  0
  1 13  1  0  0  0
  1  2  2  0  0  0
  1  4  1  0  0  0
  2  3  1  0  0  0
  2 28  1  0  0  0
  3  6  2  0  0  0
  3 29  1  0  0  0
  4  5  2  0  0  0
  4 30  1  0  0  0
  5  9  1  0  0  0
  5  6  1  0  0  0
  6  7  1  0  0  0
  7  8  1  0  0  0
  7 31  1  0  0  0
  8  9  1  0  0  0
  8 10  2  0  0  0
  9 11  2  0  0  0
 11 12  1  0  0  0
 11 32  1  0  0  0
 12 17  1  0  0  0
 12 20  2  0  0  0
 13 14  1  0  0  0
 13 33  1  0  0  0
 14 15  1  0  0  0
 14 16  2  0  0  0
 15 34  1  0  0  0
 15 35  1  0  0  0
 17 18  1  0  0  0
 17 36  1  0  0  0
 18 19  2  0  0  0
 18 27  1  0  0  0
 19 20  1  0  0  0
 19 22  1  0  0  0
 20 21  1  0  0  0
 21 37  1  0  0  0
 21 38  1  0  0  0
 21 39  1  0  0  0
 22 23  1  0  0  0
 22 40  1  0  0  0
 22 41  1  0  0  0
 23 24  1  0  0  0
 23 42  1  0  0  0
 23 43  1  0  0  0
 24 25  1  0  0  0
 24 26  2  0  0  0
 25 44  1  0  0  0
 27 45  1  0  0  0
 27 46  1  0  0  0
 27 47  1  0  0  0
M  END
> <s_m_entry_id>
4552

> <s_m_entry_name>
dock_pv.28

> <s_m_Source_Path>
/home/csk/Desktop/cluster/DUD-E-result/akt2

> <s_m_Source_File>
dock_pv.maegz

> <i_m_Source_File_Index>
28

> <chembl_id>
CHEMBL228699

> <chembl_pref_name>
None

> <i_lp_mmshare_version>
53161

> <i_f3d_flags>
0

> <r_lp_tautomer_probability>
1

> <s_lp_Force_Field>
OPLS_2005

> <r_lp_Energy>
27.092281

> <b_lp_Chiralities_Consistent>
1

> <s_lp_Variant>
CHEMBL2431_lig100-1

> <s_i_glide_gridfile>
glide-grid_3d0e

> <i_i_glide_lignum>
161

> <i_i_glide_rotatable_bonds>
7

> <r_i_docking_score>
-6.90537012313978

> <r_i_glide_ligand_efficiency>
-0.255754449005177

> <r_i_glide_ligand_efficiency_sa>
-0.767263346172606

> <r_i_glide_ligand_efficiency_ln>
-1.60745632074308

> <r_i_glide_gscore>
-6.90537012313978

> <r_i_glide_lipo>
-1.04961132394356

> <r_i_glide_hbond>
-0.397615613912888

> <r_i_glide_metal>
0

> <r_i_glide_rewards>
-1.97232143837525

> <r_i_glide_evdw>
-40.4323616027832

> <r_i_glide_ecoul>
-12.1784925460815

> <r_i_glide_erotb>
0.709950407782599

> <r_i_glide_esite>
-0.34738019263929

> <r_i_glide_emodel>
-69.6963406512719

> <r_i_glide_energy>
-52.6108541488647

> <r_i_glide_einternal>
10.2080039978027

> <i_i_glide_confnum>
171

> <i_i_glide_posenum>
322

> <r_i_glide_eff_state_penalty>
0

> <s_user_duplicate_titles>
CHEMBL2431_lig100,385872

> <s_m_subgroup_title>
dock_pv

> <s_m_subgroupid>
dock_pv

> <b_m_subgroup_collapsed>
1

$$$$
CHEMBL2431_lig1585
                    3D
 Schrodinger Suite 2021-1.
 30 32  0  0  1  0            999 V2000
   20.7532  -20.0063    7.0970 O   0  0  0  0  0  0
   22.8573  -21.1235   11.0409 O   0  0  0  0  0  0
   22.5210  -16.5887   12.2973 O   0  0  0  0  0  0
   22.5208  -14.0950   11.3912 O   0  0  0  0  0  0
   22.5067  -13.6951    9.1593 O   0  0  0  0  0  0
   21.8734  -20.1779    9.1382 N   0  0  0  0  0  0
   21.2740  -20.6567    8.0016 C   0  0  0  0  0  0
   22.2802  -21.2058    9.9547 C   0  0  0  0  0  0
   21.3577  -22.1347    8.0671 C   0  0  0  0  0  0
   21.9307  -22.4653    9.2579 C   0  0  0  0  0  0
   22.1037  -18.7857    9.4071 C   0  0  0  0  0  0
   22.1297  -18.2960   10.7218 C   0  0  0  0  0  0
   20.9538  -23.1157    7.1605 C   0  0  0  0  0  0
   22.1212  -23.7984    9.6250 C   0  0  0  0  0  0
   22.3407  -17.8590    8.3732 C   0  0  0  0  0  0
   22.3836  -16.9532   10.9896 C   0  0  0  0  0  0
   22.4944  -16.0133    9.9511 C   0  0  0  0  0  0
   22.5204  -16.4986    8.6376 C   0  0  0  0  0  0
   21.1439  -24.4588    7.5021 C   0  0  0  0  0  0
   21.7208  -24.7992    8.7333 C   0  0  0  0  0  0
   22.5210  -14.5257   10.2397 C   0  0  0  0  0  0
   22.6316  -15.6325   12.3535 H   0  0  0  0  0  0
   22.5209  -12.7647    9.4390 H   0  0  0  0  0  0
   21.9707  -18.9516   11.5646 H   0  0  0  0  0  0
   20.5165  -22.8554    6.2070 H   0  0  0  0  0  0
   22.5629  -24.0649   10.5742 H   0  0  0  0  0  0
   22.3648  -18.1747    7.3410 H   0  0  0  0  0  0
   22.6384  -15.8244    7.8004 H   0  0  0  0  0  0
   20.8324  -25.2377    6.8219 H   0  0  0  0  0  0
   21.8421  -25.8384    9.0009 H   0  0  0  0  0  0
  1  7  2  0  0  0
  2  8  2  0  0  0
  3 16  1  0  0  0
  3 22  1  0  0  0
  4 21  2  0  0  0
  5 21  1  0  0  0
  5 23  1  0  0  0
  6  7  1  0  0  0
  6  8  1  0  0  0
  6 11  1  0  0  0
  7  9  1  0  0  0
  8 10  1  0  0  0
  9 10  1  0  0  0
  9 13  2  0  0  0
 10 14  2  0  0  0
 11 12  1  0  0  0
 11 15  2  0  0  0
 12 16  2  0  0  0
 12 24  1  0  0  0
 13 19  1  0  0  0
 13 25  1  0  0  0
 14 20  1  0  0  0
 14 26  1  0  0  0
 15 18  1  0  0  0
 15 27  1  0  0  0
 16 17  1  0  0  0
 17 18  2  0  0  0
 17 21  1  0  0  0
 18 28  1  0  0  0
 19 20  2  0  0  0
 19 29  1  0  0  0
 20 30  1  0  0  0
M  END
> <s_m_entry_id>
4553

> <s_m_entry_name>
dock_pv.29

> <s_m_Source_Path>
/home/csk/Desktop/cluster/DUD-E-result/akt2

> <s_m_Source_File>
dock_pv.maegz

> <i_m_Source_File_Index>
29

> <chembl_id>
CHEMBL1972820

> <chembl_pref_name>
None

> <i_lp_mmshare_version>
53161

> <i_f3d_flags>
0

> <r_lp_tautomer_probability>
1

> <s_lp_Force_Field>
OPLS_2005

> <r_lp_Energy>
53.719421

> <b_lp_Chiralities_Consistent>
1

> <s_lp_Variant>
CHEMBL2431_lig1585-1

> <s_i_glide_gridfile>
glide-grid_3d0e

> <i_i_glide_lignum>
2330

> <i_i_glide_rotatable_bonds>
4

> <r_i_docking_score>
-6.90369211992452

> <r_i_glide_ligand_efficiency>
-0.32874724380593

> <r_i_glide_ligand_efficiency_sa>
-0.906988717934389

> <r_i_glide_ligand_efficiency_ln>
-1.70692392642788

> <r_i_glide_gscore>
-6.90369211992452

> <r_i_glide_lipo>
-1.24026684963952

> <r_i_glide_hbond>
-0.304

> <r_i_glide_metal>
0

> <r_i_glide_rewards>
-2.69578317843794

> <r_i_glide_evdw>
-36.2798194885254

> <r_i_glide_ecoul>
-8.29007339477539

> <r_i_glide_erotb>
0.451421495953057

> <r_i_glide_esite>
-0.0575616041575426

> <r_i_glide_emodel>
-62.3397348520082

> <r_i_glide_energy>
-44.5698928833008

> <r_i_glide_einternal>
1.12901508808136

> <i_i_glide_confnum>
4

> <i_i_glide_posenum>
168

> <r_i_glide_eff_state_penalty>
0

> <s_user_duplicate_titles>
CHEMBL2431_lig1585

> <s_m_subgroup_title>
dock_pv

> <s_m_subgroupid>
dock_pv

> <b_m_subgroup_collapsed>
1

$$$$
CHEMBL2431_lig924
                    3D
 Schrodinger Suite 2021-1.
 44 47  0  0  1  0            999 V2000
   21.4580  -24.3303   12.3068 F   0  0  0  0  0  0
   19.7778  -21.4567    7.4970 O   0  0  0  0  0  0
   22.4146  -16.7918   10.2652 N   0  0  0  0  0  0
   22.5220  -18.0412   12.1423 N   0  0  0  0  0  0
   22.4044  -19.7520    8.0673 N   0  0  0  0  0  0
   22.3944  -14.3780   11.6262 N   0  0  0  0  0  0
   23.3210  -19.2965    5.8970 N   0  0  0  0  0  0
   22.5800  -21.4517    6.3786 N   0  0  0  0  0  0
   22.5210  -18.1234    9.8895 C   0  0  0  0  0  0
   22.4198  -18.8579   11.1125 C   0  0  0  0  0  0
   22.5203  -16.7885   11.6540 C   0  0  0  0  0  0
   22.7342  -18.4950    8.4592 C   0  0  0  0  0  0
   22.2614  -20.3335   11.4410 C   0  0  0  0  0  0
   22.2574  -15.6071    9.5742 C   0  0  0  0  0  0
   22.5210  -15.5434   12.2990 C   0  0  0  0  0  0
   23.3960  -17.6161    7.5944 C   0  0  0  0  0  0
   22.7594  -21.3672   10.6400 C   0  0  0  0  0  0
   21.5580  -20.6990   12.6017 C   0  0  0  0  0  0
   22.7601  -20.1278    6.8097 C   0  0  0  0  0  0
   22.2529  -14.4144   10.2848 C   0  0  0  0  0  0
   23.5981  -18.0337    6.2970 C   0  0  0  0  0  0
   22.4538  -22.7040   10.8956 C   0  0  0  0  0  0
   21.3210  -22.0363   12.9108 C   0  0  0  0  0  0
   21.7210  -23.0341   12.0298 C   0  0  0  0  0  0
   21.9997  -22.5017    7.2105 C   0  0  0  0  0  0
   20.4696  -22.6355    7.0920 C   0  0  0  0  0  0
   19.7044  -21.2643    8.8995 C   0  0  0  0  0  0
   22.5478  -21.6232    5.3766 H   0  0  0  0  0  0
   22.0914  -15.6414    8.5106 H   0  0  0  0  0  0
   22.5209  -15.4746   13.3753 H   0  0  0  0  0  0
   23.7846  -16.6564    7.8902 H   0  0  0  0  0  0
   23.3210  -21.1569    9.7575 H   0  0  0  0  0  0
   21.1589  -19.9474   13.2649 H   0  0  0  0  0  0
   22.1196  -13.4650    9.7833 H   0  0  0  0  0  0
   24.0652  -17.3723    5.5802 H   0  0  0  0  0  0
   22.7974  -23.4851   10.2345 H   0  0  0  0  0  0
   20.7640  -22.2976   13.7981 H   0  0  0  0  0  0
   22.2852  -22.3694    8.2464 H   0  0  0  0  0  0
   22.4674  -23.4415    6.9155 H   0  0  0  0  0  0
   20.1209  -23.4947    7.6681 H   0  0  0  0  0  0
   20.2092  -22.8501    6.0553 H   0  0  0  0  0  0
   19.3210  -20.2695    9.1198 H   0  0  0  0  0  0
   20.6698  -21.3300    9.3656 H   0  0  0  0  0  0
   19.0600  -22.0078    9.3681 H   0  0  0  0  0  0
  1 24  1  0  0  0
  2 26  1  0  0  0
  2 27  1  0  0  0
  3  9  1  0  0  0
  3 11  1  0  0  0
  3 14  1  0  0  0
  4 10  1  0  0  0
  4 11  2  0  0  0
  5 12  2  0  0  0
  5 19  1  0  0  0
  6 15  2  0  0  0
  6 20  1  0  0  0
  7 19  2  0  0  0
  7 21  1  0  0  0
  8 19  1  0  0  0
  8 25  1  0  0  0
  8 28  1  0  0  0
  9 10  2  0  0  0
  9 12  1  0  0  0
 10 13  1  0  0  0
 11 15  1  0  0  0
 12 16  1  0  0  0
 13 17  2  0  0  0
 13 18  1  0  0  0
 14 20  2  0  0  0
 14 29  1  0  0  0
 15 30  1  0  0  0
 16 21  2  0  0  0
 16 31  1  0  0  0
 17 22  1  0  0  0
 17 32  1  0  0  0
 18 23  2  0  0  0
 18 33  1  0  0  0
 20 34  1  0  0  0
 21 35  1  0  0  0
 22 24  2  0  0  0
 22 36  1  0  0  0
 23 24  1  0  0  0
 23 37  1  0  0  0
 25 26  1  0  0  0
 25 38  1  0  0  0
 25 39  1  0  0  0
 26 40  1  0  0  0
 26 41  1  0  0  0
 27 42  1  0  0  0
 27 43  1  0  0  0
 27 44  1  0  0  0
M  END
> <s_m_entry_id>
4554

> <s_m_entry_name>
dock_pv.30

> <s_m_Source_Path>
/home/csk/Desktop/cluster/DUD-E-result/akt2

> <s_m_Source_File>
dock_pv.maegz

> <i_m_Source_File_Index>
30

> <chembl_id>
CHEMBL1969372

> <chembl_pref_name>
None

> <i_lp_mmshare_version>
53161

> <i_f3d_flags>
0

> <r_lp_tautomer_probability>
0.999999987636

> <s_lp_Force_Field>
OPLS_2005

> <r_lp_Energy>
12.94228

> <b_lp_Chiralities_Consistent>
1

> <s_lp_Variant>
CHEMBL2431_lig924-1

> <s_i_glide_gridfile>
glide-grid_3d0e

> <i_i_glide_lignum>
1304

> <i_i_glide_rotatable_bonds>
6

> <r_i_docking_score>
-6.89123001764258

> <r_i_glide_ligand_efficiency>
-0.25523074139417

> <r_i_glide_ligand_efficiency_sa>
-0.76569222334131

> <r_i_glide_ligand_efficiency_ln>
-1.60416473730119

> <r_i_glide_gscore>
-6.89123001764258

> <r_i_glide_lipo>
-2.15291824678927

> <r_i_glide_hbond>
-0.599462840282671

> <r_i_glide_metal>
0

> <r_i_glide_rewards>
-2.42963512382275

> <r_i_glide_evdw>
-31.1705532073975

> <r_i_glide_ecoul>
-5.09071588516235

> <r_i_glide_erotb>
0.723962308850073

> <r_i_glide_esite>
-0.111041072453733

> <r_i_glide_emodel>
-51.3897803480366

> <r_i_glide_energy>
-36.2612690925598

> <r_i_glide_einternal>
6.09755229949951

> <i_i_glide_confnum>
145

> <i_i_glide_posenum>
57

> <r_i_glide_eff_state_penalty>
0

> <s_user_duplicate_titles>
CHEMBL2431_lig924

> <s_m_subgroup_title>
dock_pv

> <s_m_subgroupid>
dock_pv

> <b_m_subgroup_collapsed>
1

$$$$
CHEMBL2431_lig1067
                    3D
 Schrodinger Suite 2021-1.
 45 47  0  0  1  0            999 V2000
   23.7180  -22.0937    6.3463 O   0  0  0  0  0  0
   20.2950  -24.0959    5.3521 O   0  0  0  0  0  0
   21.8473  -22.7419    7.4388 N   0  0  0  0  0  0
   22.5104  -14.1617   10.9807 N   0  0  0  0  0  0
   22.4939  -17.9232    8.8919 C   0  0  0  0  0  0
   22.5697  -20.4406    7.6432 C   0  0  0  0  0  0
   22.5182  -16.6283    9.6163 C   0  0  0  0  0  0
   22.7567  -21.8270    7.0696 C   0  0  0  0  0  0
   21.7349  -18.9835    9.3903 C   0  0  0  0  0  0
   23.2379  -18.1121    7.7187 C   0  0  0  0  0  0
   21.7742  -20.2277    8.7799 C   0  0  0  0  0  0
   23.2722  -19.3579    7.0972 C   0  0  0  0  0  0
   21.9060  -24.1885    7.2114 C   0  0  1  0  0  0
   22.5234  -15.4200    8.9150 C   0  0  0  0  0  0
   22.5210  -16.5755   11.0209 C   0  0  0  0  0  0
   20.9795  -24.8963    8.2110 C   0  0  0  0  0  0
   21.3861  -24.7342    9.6706 C   0  0  0  0  0  0
   22.5147  -14.2256    9.6266 C   0  0  0  0  0  0
   22.5210  -15.3341   11.6594 C   0  0  0  0  0  0
   21.5541  -24.5954    5.7639 C   0  0  0  0  0  0
   22.1200  -25.7399   10.3043 C   0  0  0  0  0  0
   20.9538  -23.6182   10.3908 C   0  0  0  0  0  0
   22.4087  -25.6267   11.6588 C   0  0  0  0  0  0
   21.2821  -23.4890   11.7340 C   0  0  0  0  0  0
   21.9999  -24.4984   12.3620 C   0  0  0  0  0  0
   20.5190  -23.3777    4.7336 H   0  0  0  0  0  0
   21.0430  -22.4227    7.9558 H   0  0  0  0  0  0
   21.1299  -18.8603   10.2784 H   0  0  0  0  0  0
   23.8308  -17.3052    7.3098 H   0  0  0  0  0  0
   21.2090  -21.0228    9.2400 H   0  0  0  0  0  0
   23.8883  -19.4906    6.2221 H   0  0  0  0  0  0
   22.9208  -24.5252    7.4138 H   0  0  0  0  0  0
   22.5115  -15.4015    7.8356 H   0  0  0  0  0  0
   22.5225  -17.4794   11.6115 H   0  0  0  0  0  0
   20.8990  -25.9605    7.9829 H   0  0  0  0  0  0
   19.9787  -24.4950    8.0829 H   0  0  0  0  0  0
   22.4999  -13.2951    9.0880 H   0  0  0  0  0  0
   22.5205  -15.2714   12.7385 H   0  0  0  0  0  0
   22.3134  -24.1946    5.0917 H   0  0  0  0  0  0
   21.5947  -25.6788    5.6420 H   0  0  0  0  0  0
   22.4202  -26.6280    9.7652 H   0  0  0  0  0  0
   20.3211  -22.8766    9.9279 H   0  0  0  0  0  0
   22.9210  -26.4256   12.1721 H   0  0  0  0  0  0
   20.9272  -22.6345   12.2935 H   0  0  0  0  0  0
   22.2085  -24.4204   13.4187 H   0  0  0  0  0  0
  1  8  2  0  0  0
  2 20  1  0  0  0
  2 26  1  0  0  0
  3  8  1  0  0  0
  3 13  1  0  0  0
  3 27  1  0  0  0
  4 18  2  0  0  0
  4 19  1  0  0  0
  5  7  1  0  0  0
  5  9  2  0  0  0
  5 10  1  0  0  0
  6  8  1  0  0  0
  6 11  2  0  0  0
  6 12  1  0  0  0
  7 14  2  0  0  0
  7 15  1  0  0  0
  9 11  1  0  0  0
  9 28  1  0  0  0
 10 12  2  0  0  0
 10 29  1  0  0  0
 11 30  1  0  0  0
 12 31  1  0  0  0
 13 16  1  0  0  0
 13 20  1  0  0  0
 13 32  1  0  0  0
 14 18  1  0  0  0
 14 33  1  0  0  0
 15 19  2  0  0  0
 15 34  1  0  0  0
 16 17  1  0  0  0
 16 35  1  0  0  0
 16 36  1  0  0  0
 17 21  2  0  0  0
 17 22  1  0  0  0
 18 37  1  0  0  0
 19 38  1  0  0  0
 20 39  1  0  0  0
 20 40  1  0  0  0
 21 23  1  0  0  0
 21 41  1  0  0  0
 22 24  2  0  0  0
 22 42  1  0  0  0
 23 25  2  0  0  0
 23 43  1  0  0  0
 24 25  1  0  0  0
 24 44  1  0  0  0
 25 45  1  0  0  0
M  END
> <s_m_entry_id>
4555

> <s_m_entry_name>
dock_pv.31

> <s_m_Source_Path>
/home/csk/Desktop/cluster/DUD-E-result/akt2

> <s_m_Source_File>
dock_pv.maegz

> <i_m_Source_File_Index>
31

> <chembl_id>
CHEMBL1998545

> <chembl_pref_name>
None

> <i_lp_mmshare_version>
53161

> <i_f3d_flags>
0

> <r_lp_tautomer_probability>
1

> <s_lp_Force_Field>
OPLS_2005

> <r_lp_Energy>
17.176488

> <b_lp_Chiralities_Consistent>
1

> <s_lp_Variant>
CHEMBL2431_lig1067-2

> <s_i_glide_gridfile>
glide-grid_3d0e

> <i_i_glide_lignum>
1516

> <i_i_glide_rotatable_bonds>
8

> <r_i_docking_score>
-6.87823147399452

> <r_i_glide_ligand_efficiency>
-0.275129258959781

> <r_i_glide_ligand_efficiency_sa>
-0.804482832636583

> <r_i_glide_ligand_efficiency_ln>
-1.63034698330079

> <r_i_glide_gscore>
-6.87823147399452

> <r_i_glide_lipo>
-2.31939946045148

> <r_i_glide_hbond>
-0.425243151984859

> <r_i_glide_metal>
0

> <r_i_glide_rewards>
-2.15333514103338

> <r_i_glide_evdw>
-38.3460464477539

> <r_i_glide_ecoul>
-7.22688150405884

> <r_i_glide_erotb>
1.02277610095143

> <r_i_glide_esite>
-0.00169527347971358

> <r_i_glide_emodel>
-62.5159463848118

> <r_i_glide_energy>
-45.5729279518127

> <r_i_glide_einternal>
6.464186668396

> <i_i_glide_confnum>
40

> <i_i_glide_posenum>
375

> <r_i_glide_eff_state_penalty>
0

> <s_user_duplicate_titles>
CHEMBL2431_lig1067

> <s_m_subgroup_title>
dock_pv

> <s_m_subgroupid>
dock_pv

> <b_m_subgroup_collapsed>
1

$$$$
CHEMBL2431_lig1109
                    3D
 Schrodinger Suite 2021-1.
 38 40  0  0  1  0            999 V2000
   22.5210  -17.7708   11.5627 F   0  0  0  0  0  0
   22.5204  -15.2956   12.7093 F   0  0  0  0  0  0
   22.8922  -23.4005   10.5431 O   0  0  0  0  0  0
   22.7040  -21.8070    6.6972 N   0  0  0  0  0  0
   22.0115  -22.5224    7.5947 N   0  0  0  0  0  0
   20.9812  -22.4073    9.7873 N   0  0  0  0  0  0
   22.0023  -20.4786    8.4853 C   0  0  0  0  0  0
   22.7028  -20.5529    7.2410 C   0  0  0  0  0  0
   22.5540  -18.1190    8.6498 C   0  0  0  0  0  0
   21.5858  -21.8207    8.6955 C   0  0  0  0  0  0
   22.5219  -16.7989    9.3592 C   0  0  0  0  0  0
   21.9043  -19.2542    9.1660 C   0  0  0  0  0  0
   23.3172  -19.4163    6.7151 C   0  0  0  0  0  0
   22.5203  -16.6778   10.7625 C   0  0  0  0  0  0
   23.2527  -18.2311    7.4377 C   0  0  0  0  0  0
   22.5203  -15.4165   11.3659 C   0  0  0  0  0  0
   22.5210  -15.6164    8.6050 C   0  0  0  0  0  0
   21.6758  -23.1986   10.6287 C   0  0  0  0  0  0
   22.5192  -14.2664   10.5886 C   0  0  0  0  0  0
   22.5210  -14.3629    9.2061 C   0  0  0  0  0  0
   20.8585  -23.8693   11.7405 C   0  0  0  0  0  0
   21.4834  -25.1455   12.3507 C   0  0  0  0  0  0
   21.7141  -26.3091   11.3725 C   0  0  0  0  0  0
   21.8641  -23.5136    7.4758 H   0  0  0  0  0  0
   20.0031  -22.2197    9.9822 H   0  0  0  0  0  0
   21.3430  -19.2045   10.0874 H   0  0  0  0  0  0
   23.8412  -19.4626    5.7773 H   0  0  0  0  0  0
   23.7724  -17.3759    7.0319 H   0  0  0  0  0  0
   22.5131  -15.6514    7.5260 H   0  0  0  0  0  0
   22.5205  -13.2951   11.0510 H   0  0  0  0  0  0
   22.5128  -13.4675    8.6020 H   0  0  0  0  0  0
   19.8574  -24.0980   11.3687 H   0  0  0  0  0  0
   20.7192  -23.1314   12.5318 H   0  0  0  0  0  0
   20.8145  -25.4977   13.1344 H   0  0  0  0  0  0
   22.4213  -24.8934   12.8490 H   0  0  0  0  0  0
   22.1149  -27.1774   11.8957 H   0  0  0  0  0  0
   22.4227  -26.0499   10.5850 H   0  0  0  0  0  0
   20.7824  -26.6138   10.8967 H   0  0  0  0  0  0
  1 14  1  0  0  0
  2 16  1  0  0  0
  3 18  2  0  0  0
  4  5  1  0  0  0
  4  8  2  0  0  0
  5 24  1  0  0  0
  5 10  1  0  0  0
  6 18  1  0  0  0
  6 25  1  0  0  0
  6 10  1  0  0  0
  7 12  1  0  0  0
  7  8  1  0  0  0
  7 10  2  0  0  0
  8 13  1  0  0  0
  9 15  1  0  0  0
  9 11  1  0  0  0
  9 12  2  0  0  0
 11 14  1  0  0  0
 11 17  2  0  0  0
 12 26  1  0  0  0
 13 27  1  0  0  0
 13 15  2  0  0  0
 14 16  2  0  0  0
 15 28  1  0  0  0
 16 19  1  0  0  0
 17 20  1  0  0  0
 17 29  1  0  0  0
 18 21  1  0  0  0
 19 20  2  0  0  0
 19 30  1  0  0  0
 20 31  1  0  0  0
 21 22  1  0  0  0
 21 32  1  0  0  0
 21 33  1  0  0  0
 22 23  1  0  0  0
 22 34  1  0  0  0
 22 35  1  0  0  0
 23 36  1  0  0  0
 23 37  1  0  0  0
 23 38  1  0  0  0
M  END
> <s_m_entry_id>
4556

> <s_m_entry_name>
dock_pv.32

> <s_m_Source_Path>
/home/csk/Desktop/cluster/DUD-E-result/akt2

> <s_m_Source_File>
dock_pv.maegz

> <i_m_Source_File_Index>
32

> <chembl_id>
CHEMBL1985406

> <chembl_pref_name>
None

> <i_lp_mmshare_version>
53161

> <i_f3d_flags>
0

> <r_lp_tautomer_probability>
0.0196078431372549

> <s_lp_Force_Field>
OPLS_2005

> <r_lp_Energy>
37.583558

> <b_lp_Chiralities_Consistent>
1

> <s_lp_Variant>
CHEMBL2431_lig1109-2

> <s_i_glide_gridfile>
glide-grid_3d0e

> <i_i_glide_lignum>
1591

> <i_i_glide_rotatable_bonds>
5

> <r_i_docking_score>
-6.87711257743741

> <r_i_glide_ligand_efficiency>
-0.299004894671192

> <r_i_glide_ligand_efficiency_sa>
-0.850330145880662

> <r_i_glide_ligand_efficiency_ln>
-1.66294817943356

> <r_i_glide_gscore>
-6.87711257743741

> <r_i_glide_lipo>
-2.50183617000897

> <r_i_glide_hbond>
-0.0162342608901669

> <r_i_glide_metal>
0

> <r_i_glide_rewards>
-2.31772391138979

> <r_i_glide_evdw>
-40.1067199707031

> <r_i_glide_ecoul>
-4.26858520507812

> <r_i_glide_erotb>
0.748338760134179

> <r_i_glide_esite>
-0.144033215985779

> <r_i_glide_emodel>
-60.6434856835551

> <r_i_glide_energy>
-44.3753051757812

> <r_i_glide_einternal>
4.69027900695801

> <i_i_glide_confnum>
15

> <i_i_glide_posenum>
295

> <r_i_glide_eff_state_penalty>
0

> <s_user_duplicate_titles>
CHEMBL2431_lig1109

> <s_m_subgroup_title>
dock_pv

> <s_m_subgroupid>
dock_pv

> <b_m_subgroup_collapsed>
1

$$$$
CHEMBL2431_lig1136
                    3D
 Schrodinger Suite 2021-1.
 36 37  0  0  1  0            999 V2000
   23.3210  -18.8437    6.1194 Cl  0  0  0  0  0  0
   22.1110  -23.6881    9.2118 O   0  0  0  0  0  0
   23.2225  -21.4196    6.5959 N   0  0  0  0  0  0
   22.1210  -14.0950   11.0970 N   0  0  0  0  0  0
   21.3210  -26.2535   10.2234 N   0  0  0  0  0  0
   22.2421  -20.0620    8.3410 C   0  0  0  0  0  0
   22.8872  -20.2067    7.0970 C   0  0  0  0  0  0
   22.2817  -22.4849    8.5578 C   0  0  0  0  0  0
   21.9112  -21.2240    9.0510 C   0  0  0  0  0  0
   22.9210  -22.5221    7.3201 C   0  0  0  0  0  0
   21.9575  -18.7645    8.9736 C   0  0  0  0  0  0
   22.8637  -17.7774    9.0970 C   0  0  0  0  0  0
   22.6221  -16.5186    9.7917 C   0  0  0  0  0  0
   21.2497  -23.7765   10.3509 C   0  0  0  0  0  0
   22.5210  -15.3365    9.0621 C   0  0  0  0  0  0
   22.5210  -16.4754   11.1863 C   0  0  0  0  0  0
   21.4629  -25.1109   11.1070 C   0  0  2  0  0  0
   22.2451  -14.1570    9.7467 C   0  0  0  0  0  0
   22.2755  -15.2460   11.7988 C   0  0  0  0  0  0
   22.8215  -25.2258   11.8023 C   0  0  0  0  0  0
   21.4156  -27.1081   10.7509 H   0  0  0  0  0  0
   20.3466  -26.2347    9.8967 H   0  0  0  0  0  0
   21.4154  -21.1256   10.0046 H   0  0  0  0  0  0
   23.2189  -23.4680    6.8921 H   0  0  0  0  0  0
   20.9588  -18.6260    9.3675 H   0  0  0  0  0  0
   23.8585  -17.9051    8.6958 H   0  0  0  0  0  0
   21.4237  -22.9673   11.0600 H   0  0  0  0  0  0
   20.2139  -23.6950   10.0146 H   0  0  0  0  0  0
   22.6030  -15.3380    7.9846 H   0  0  0  0  0  0
   22.6133  -17.3751   11.7772 H   0  0  0  0  0  0
   20.6826  -25.1868   11.8677 H   0  0  0  0  0  0
   22.1029  -13.2470    9.1909 H   0  0  0  0  0  0
   22.1764  -15.1758   12.8722 H   0  0  0  0  0  0
   22.9210  -24.4656   12.5731 H   0  0  0  0  0  0
   22.9210  -26.1915   12.2970 H   0  0  0  0  0  0
   23.6460  -25.1134   11.0967 H   0  0  0  0  0  0
  1  7  1  0  0  0
  2  8  1  0  0  0
  2 14  1  0  0  0
  3  7  2  0  0  0
  3 10  1  0  0  0
  4 18  2  0  0  0
  4 19  1  0  0  0
  5 17  1  0  0  0
  5 21  1  0  0  0
  5 22  1  0  0  0
  6  7  1  0  0  0
  6  9  2  0  0  0
  6 11  1  0  0  0
  8  9  1  0  0  0
  8 10  2  0  0  0
  9 23  1  0  0  0
 10 24  1  0  0  0
 11 12  2  3  0  0
 11 25  1  0  0  0
 12 13  1  0  0  0
 12 26  1  0  0  0
 13 15  2  0  0  0
 13 16  1  0  0  0
 14 17  1  0  0  0
 14 27  1  0  0  0
 14 28  1  0  0  0
 15 18  1  0  0  0
 15 29  1  0  0  0
 16 19  2  0  0  0
 16 30  1  0  0  0
 17 20  1  0  0  0
 17 31  1  0  0  0
 18 32  1  0  0  0
 19 33  1  0  0  0
 20 34  1  0  0  0
 20 35  1  0  0  0
 20 36  1  0  0  0
M  END
> <s_m_entry_id>
4557

> <s_m_entry_name>
dock_pv.33

> <s_m_Source_Path>
/home/csk/Desktop/cluster/DUD-E-result/akt2

> <s_m_Source_File>
dock_pv.maegz

> <i_m_Source_File_Index>
33

> <chembl_id>
CHEMBL1993548

> <chembl_pref_name>
None

> <i_lp_mmshare_version>
53161

> <i_f3d_flags>
0

> <r_lp_tautomer_probability>
1

> <s_lp_Force_Field>
OPLS_2005

> <r_lp_Energy>
17.170094

> <b_lp_Chiralities_Consistent>
1

> <s_lp_Variant>
CHEMBL2431_lig1136-1

> <s_i_glide_gridfile>
glide-grid_3d0e

> <i_i_glide_lignum>
1630

> <i_i_glide_rotatable_bonds>
5

> <r_i_docking_score>
-6.86357349096761

> <r_i_glide_ligand_efficiency>
-0.34317867454838

> <r_i_glide_ligand_efficiency_sa>
-0.931530238903609

> <r_i_glide_ligand_efficiency_ln>
-1.7177260689848

> <r_i_glide_gscore>
-6.86357349096761

> <r_i_glide_lipo>
-1.82971553934935

> <r_i_glide_hbond>
-0.456

> <r_i_glide_metal>
0

> <r_i_glide_rewards>
-2.50251515438765

> <r_i_glide_evdw>
-33.4205017089844

> <r_i_glide_ecoul>
-8.48040390014648

> <r_i_glide_erotb>
0.867742873240586

> <r_i_glide_esite>
0

> <r_i_glide_emodel>
-55.69606424598

> <r_i_glide_energy>
-41.9009056091309

> <r_i_glide_einternal>
8.23347568511963

> <i_i_glide_confnum>
5

> <i_i_glide_posenum>
256

> <r_i_glide_eff_state_penalty>
0

> <s_user_duplicate_titles>
CHEMBL2431_lig1136

> <s_m_subgroup_title>
dock_pv

> <s_m_subgroupid>
dock_pv

> <b_m_subgroup_collapsed>
1

$$$$
CHEMBL2431_lig1574
                    3D
 Schrodinger Suite 2021-1.
 36 38  0  0  1  0            999 V2000
   22.5208  -17.8027   11.6287 F   0  0  0  0  0  0
   22.5210  -15.2964   12.6966 F   0  0  0  0  0  0
   22.7802  -23.7042   10.3566 O   0  0  0  0  0  0
   22.9873  -19.4402    6.7248 N   0  0  0  0  0  0
   22.2255  -21.7665    6.6970 N   0  0  0  0  0  0
   23.0226  -18.3219    7.4688 N   0  0  0  0  0  0
   21.6444  -22.6060    7.5728 N   0  0  0  0  0  0
   20.9202  -22.4909    9.8290 N   0  0  0  0  0  0
   21.8648  -20.5717    8.5491 C   0  0  0  0  0  0
   22.4204  -20.5212    7.2574 C   0  0  0  0  0  0
   22.4785  -18.2598    8.7238 C   0  0  0  0  0  0
   21.4422  -21.9308    8.6831 C   0  0  0  0  0  0
   22.5158  -16.9116    9.3887 C   0  0  0  0  0  0
   21.8759  -19.3888    9.3082 C   0  0  0  0  0  0
   22.5210  -16.7393   10.7905 C   0  0  0  0  0  0
   22.5212  -15.4588   11.3543 C   0  0  0  0  0  0
   22.5226  -15.7503    8.5973 C   0  0  0  0  0  0
   21.5982  -23.4002   10.5551 C   0  0  0  0  0  0
   22.5199  -14.3338   10.5387 C   0  0  0  0  0  0
   22.5211  -14.4795    9.1599 C   0  0  0  0  0  0
   20.8060  -24.0458   11.6987 C   0  0  0  0  0  0
   21.4327  -25.3205   12.3046 C   0  0  0  0  0  0
   21.5134  -26.5356   11.3669 C   0  0  0  0  0  0
   22.4003  -22.0688    5.7438 H   0  0  0  0  0  0
   19.9931  -22.2154   10.1347 H   0  0  0  0  0  0
   21.4176  -19.3635   10.2845 H   0  0  0  0  0  0
   22.5195  -15.8181    7.5188 H   0  0  0  0  0  0
   22.5209  -13.3430   10.9648 H   0  0  0  0  0  0
   22.5143  -13.6041    8.5262 H   0  0  0  0  0  0
   19.7893  -24.2637   11.3633 H   0  0  0  0  0  0
   20.7069  -23.2954   12.4829 H   0  0  0  0  0  0
   20.8259  -25.6065   13.1619 H   0  0  0  0  0  0
   22.4250  -25.0957   12.6984 H   0  0  0  0  0  0
   21.9418  -27.3904   11.8916 H   0  0  0  0  0  0
   22.1373  -26.3375   10.4955 H   0  0  0  0  0  0
   20.5228  -26.8286   11.0171 H   0  0  0  0  0  0
  1 15  1  0  0  0
  2 16  1  0  0  0
  3 18  2  0  0  0
  4  6  1  0  0  0
  4 10  2  0  0  0
  5  7  1  0  0  0
  5 10  1  0  0  0
  5 24  1  0  0  0
  6 11  2  0  0  0
  7 12  2  0  0  0
  8 12  1  0  0  0
  8 18  1  0  0  0
  8 25  1  0  0  0
  9 10  1  0  0  0
  9 12  1  0  0  0
  9 14  2  0  0  0
 11 13  1  0  0  0
 11 14  1  0  0  0
 13 15  1  0  0  0
 13 17  2  0  0  0
 14 26  1  0  0  0
 15 16  2  0  0  0
 16 19  1  0  0  0
 17 20  1  0  0  0
 17 27  1  0  0  0
 18 21  1  0  0  0
 19 20  2  0  0  0
 19 28  1  0  0  0
 20 29  1  0  0  0
 21 22  1  0  0  0
 21 30  1  0  0  0
 21 31  1  0  0  0
 22 23  1  0  0  0
 22 32  1  0  0  0
 22 33  1  0  0  0
 23 34  1  0  0  0
 23 35  1  0  0  0
 23 36  1  0  0  0
M  END
> <s_m_entry_id>
4558

> <s_m_entry_name>
dock_pv.34

> <s_m_Source_Path>
/home/csk/Desktop/cluster/DUD-E-result/akt2

> <s_m_Source_File>
dock_pv.maegz

> <i_m_Source_File_Index>
34

> <chembl_id>
CHEMBL1979970

> <chembl_pref_name>
None

> <i_lp_mmshare_version>
53161

> <i_f3d_flags>
0

> <r_lp_tautomer_probability>
1

> <s_lp_Force_Field>
OPLS_2005

> <r_lp_Energy>
28.511558

> <b_lp_Chiralities_Consistent>
1

> <s_lp_Variant>
CHEMBL2431_lig1574-1

> <s_i_glide_gridfile>
glide-grid_3d0e

> <i_i_glide_lignum>
2312

> <i_i_glide_rotatable_bonds>
5

> <r_i_docking_score>
-6.85675582525781

> <r_i_glide_ligand_efficiency>
-0.29811981848947

> <r_i_glide_ligand_efficiency_sa>
-0.847813106955442

> <r_i_glide_ligand_efficiency_ln>
-1.65802573217171

> <r_i_glide_gscore>
-6.85675582525781

> <r_i_glide_lipo>
-2.00530532176526

> <r_i_glide_hbond>
-0.182234097091588

> <r_i_glide_metal>
0

> <r_i_glide_rewards>
-2.12983489241112

> <r_i_glide_evdw>
-40.3604545593262

> <r_i_glide_ecoul>
-7.12774229049683

> <r_i_glide_erotb>
0.740156331747379

> <r_i_glide_esite>
-0.19235377419639

> <r_i_glide_emodel>
-65.3350323391759

> <r_i_glide_energy>
-47.488196849823

> <r_i_glide_einternal>
5.25536632537842

> <i_i_glide_confnum>
16

> <i_i_glide_posenum>
271

> <r_i_glide_eff_state_penalty>
0

> <s_user_duplicate_titles>
CHEMBL2431_lig1574

> <s_m_subgroup_title>
dock_pv

> <s_m_subgroupid>
dock_pv

> <b_m_subgroup_collapsed>
1

$$$$
CHEMBL2431_lig876
                    3D
 Schrodinger Suite 2021-1.
 40 43  0  0  1  0            999 V2000
   22.2966  -18.8968    9.7521 N   0  0  0  0  0  0
   22.3146  -19.0828    8.3667 C   0  0  0  0  0  0
   22.5210  -17.9873    7.6787 N   0  0  0  0  0  0
   22.4597  -17.5293    9.9220 C   0  0  0  0  0  0
   22.5209  -16.9969    8.6177 C   0  0  0  0  0  0
   22.5336  -15.6038    8.4728 C   0  0  0  0  0  0
   22.5258  -14.8299    9.6347 C   0  0  0  0  0  0
   22.5191  -15.4623   10.8796 C   0  0  0  0  0  0
   22.5043  -16.8090   11.0510 N   0  0  0  0  0  0
   22.0588  -20.3973    7.7077 C   0  0  0  0  0  0
   23.1157  -21.0943    7.1124 C   0  0  0  0  0  0
   22.9203  -22.4111    6.6968 C   0  0  0  0  0  0
   21.6531  -22.9784    6.8411 C   0  0  0  0  0  0
   20.6012  -22.3050    7.3693 N   0  0  0  0  0  0
   20.8094  -21.0352    7.7924 C   0  0  0  0  0  0
   22.0247  -19.8761   10.7509 C   0  0  0  0  0  0
   21.2904  -19.5301   11.8899 C   0  0  0  0  0  0
   20.9505  -20.4950   12.8308 C   0  0  0  0  0  0
   21.3211  -21.8289   12.6336 C   0  0  0  0  0  0
   22.0572  -22.1756   11.4977 C   0  0  0  0  0  0
   22.4623  -21.1979   10.6004 C   0  0  0  0  0  0
   19.7210  -20.3882    8.3657 N   0  0  0  0  0  0
   20.8741  -22.9359   13.5872 C   0  0  0  0  0  0
   20.6575  -22.4912   14.9563 N   0  0  0  0  0  0
   22.4761  -14.4950   12.2969 Cl  0  0  0  0  0  0
   22.5209  -15.1445    7.4970 H   0  0  0  0  0  0
   22.5203  -13.7501    9.5684 H   0  0  0  0  0  0
   24.0945  -20.6440    7.0379 H   0  0  0  0  0  0
   23.7255  -22.9808    6.2580 H   0  0  0  0  0  0
   21.4594  -23.9887    6.5110 H   0  0  0  0  0  0
   20.9210  -18.5276   12.0313 H   0  0  0  0  0  0
   20.3452  -20.2180   13.6810 H   0  0  0  0  0  0
   22.3367  -23.2046   11.3246 H   0  0  0  0  0  0
   23.0693  -21.5045    9.7649 H   0  0  0  0  0  0
   19.8217  -19.4311    8.6689 H   0  0  0  0  0  0
   18.8624  -20.8944    8.5734 H   0  0  0  0  0  0
   21.6122  -23.7391   13.5917 H   0  0  0  0  0  0
   19.9456  -23.3626   13.2048 H   0  0  0  0  0  0
   20.2936  -23.2636   15.4943 H   0  0  0  0  0  0
   21.5593  -22.2584   15.3624 H   0  0  0  0  0  0
  1  4  1  0  0  0
  1  2  1  0  0  0
  1 16  1  0  0  0
  2  3  2  0  0  0
  2 10  1  0  0  0
  3  5  1  0  0  0
  4  5  2  0  0  0
  4  9  1  0  0  0
  5  6  1  0  0  0
  6  7  2  0  0  0
  6 26  1  0  0  0
  7  8  1  0  0  0
  7 27  1  0  0  0
  8  9  2  0  0  0
  8 25  1  0  0  0
 10 11  2  0  0  0
 10 15  1  0  0  0
 11 12  1  0  0  0
 11 28  1  0  0  0
 12 13  2  0  0  0
 12 29  1  0  0  0
 13 14  1  0  0  0
 13 30  1  0  0  0
 14 15  2  0  0  0
 15 22  1  0  0  0
 16 17  2  0  0  0
 16 21  1  0  0  0
 17 18  1  0  0  0
 17 31  1  0  0  0
 18 19  2  0  0  0
 18 32  1  0  0  0
 19 20  1  0  0  0
 19 23  1  0  0  0
 20 21  2  0  0  0
 20 33  1  0  0  0
 21 34  1  0  0  0
 22 35  1  0  0  0
 22 36  1  0  0  0
 23 24  1  0  0  0
 23 37  1  0  0  0
 23 38  1  0  0  0
 24 39  1  0  0  0
 24 40  1  0  0  0
M  END
> <s_m_entry_id>
4559

> <s_m_entry_name>
dock_pv.35

> <s_m_Source_Path>
/home/csk/Desktop/cluster/DUD-E-result/akt2

> <s_m_Source_File>
dock_pv.maegz

> <i_m_Source_File_Index>
35

> <chembl_id>
CHEMBL4545250

> <chembl_pref_name>
None

> <i_lp_mmshare_version>
53161

> <i_f3d_flags>
0

> <r_lp_tautomer_probability>
0.999999772200052

> <s_lp_Force_Field>
OPLS_2005

> <r_lp_Energy>
24.259696

> <b_lp_Chiralities_Consistent>
1

> <s_lp_Variant>
CHEMBL2431_lig876-1

> <s_i_glide_gridfile>
glide-grid_3d0e

> <i_i_glide_lignum>
1244

> <i_i_glide_rotatable_bonds>
3

> <r_i_docking_score>
-6.83539890320997

> <r_i_glide_ligand_efficiency>
-0.273415956128399

> <r_i_glide_ligand_efficiency_sa>
-0.799473104772067

> <r_i_glide_ligand_efficiency_ln>
-1.62019438043629

> <r_i_glide_gscore>
-6.83539890320997

> <r_i_glide_lipo>
-1.83469191652043

> <r_i_glide_hbond>
-0.608

> <r_i_glide_metal>
0

> <r_i_glide_rewards>
-1.58270330606579

> <r_i_glide_evdw>
-41.6260871887207

> <r_i_glide_ecoul>
-6.45390272140503

> <r_i_glide_erotb>
0.30984355121319

> <r_i_glide_esite>
-0.0704574641901567

> <r_i_glide_emodel>
-63.6105397788298

> <r_i_glide_energy>
-48.0799899101257

> <r_i_glide_einternal>
3.91299223899841

> <i_i_glide_confnum>
6

> <i_i_glide_posenum>
251

> <r_i_glide_eff_state_penalty>
0

> <s_user_duplicate_titles>
CHEMBL2431_lig876

> <s_m_subgroup_title>
dock_pv

> <s_m_subgroupid>
dock_pv

> <b_m_subgroup_collapsed>
1

$$$$
CHEMBL2431_lig864
                    3D
 Schrodinger Suite 2021-1.
 59 62  0  0  1  0            999 V2000
   22.5964  -17.7952    8.6753 C   0  0  0  0  0  0
   21.8870  -18.8928    8.8863 N   0  0  0  0  0  0
   22.0755  -19.8071    7.9681 C   0  0  0  0  0  0
   23.1818  -19.3418    6.6984 S   0  0  0  0  0  0
   23.3651  -17.8153    7.5068 C   0  0  0  0  0  0
   21.7210  -25.6068    7.4716 C   0  0  0  0  0  0
   21.0038  -24.5778    6.8572 C   0  0  0  0  0  0
   20.6060  -24.7256    5.5252 C   0  0  0  0  0  0
   20.9208  -25.8741    4.7982 C   0  0  0  0  0  0
   21.6576  -26.8910    5.4233 C   0  0  0  0  0  0
   22.0489  -26.7580    6.7559 C   0  0  0  0  0  0
   20.6756  -23.2983    7.6247 C   0  0  0  0  0  0
   21.7363  -22.1881    7.5010 C   0  0  0  0  0  0
   21.3492  -20.9901    7.9847 N   0  0  0  0  0  0
   22.8584  -22.4233    7.0478 O   0  0  0  0  0  0
   22.5377  -16.6685    9.6481 C   0  0  0  0  0  0
   22.5210  -16.8901   11.0331 C   0  0  0  0  0  0
   22.5210  -15.7912   11.8943 C   0  0  0  0  0  0
   22.4778  -14.5100   11.4515 N   0  0  0  0  0  0
   22.4752  -14.3126   10.1094 C   0  0  0  0  0  0
   22.5226  -15.3511    9.1820 C   0  0  0  0  0  0
   20.4146  -25.9443    3.5151 O   0  0  0  0  0  0
   21.0094  -26.8085    2.5470 C   0  0  0  0  0  0
   22.3234  -26.2150    2.0011 C   0  0  0  0  0  0
   22.1003  -24.8893    1.2380 C   0  0  0  0  0  0
   23.3584  -24.2003    0.6574 C   0  0  0  0  0  0
   24.3852  -23.7696    1.7204 C   0  0  0  0  0  0
   25.5365  -22.9582    1.0875 C   0  0  0  0  0  0
   26.1974  -23.6988    0.0067 N   0  0  1  0  0  0
   25.2873  -24.2387   -1.0123 C   0  0  0  0  0  0
   24.1209  -25.0376   -0.3881 C   0  0  0  0  0  0
   24.0176  -17.0479    7.1163 H   0  0  0  0  0  0
   22.0286  -25.5136    8.5037 H   0  0  0  0  0  0
   20.0612  -23.9337    5.0338 H   0  0  0  0  0  0
   21.9117  -27.8027    4.9076 H   0  0  0  0  0  0
   22.6021  -27.5487    7.2398 H   0  0  0  0  0  0
   20.5495  -23.5388    8.6822 H   0  0  0  0  0  0
   19.7210  -22.9068    7.2724 H   0  0  0  0  0  0
   20.4905  -20.9676    8.5162 H   0  0  0  0  0  0
   22.5273  -17.8939   11.4322 H   0  0  0  0  0  0
   22.5203  -15.9327   12.9648 H   0  0  0  0  0  0
   22.4346  -13.2951    9.7659 H   0  0  0  0  0  0
   22.5218  -15.1345    8.1233 H   0  0  0  0  0  0
   21.1532  -27.8208    2.9253 H   0  0  0  0  0  0
   20.2964  -26.9145    1.7277 H   0  0  0  0  0  0
   23.0195  -26.0628    2.8257 H   0  0  0  0  0  0
   22.7884  -26.9446    1.3391 H   0  0  0  0  0  0
   21.3937  -25.0631    0.4239 H   0  0  0  0  0  0
   21.5975  -24.1776    1.8970 H   0  0  0  0  0  0
   23.0145  -23.2952    0.1584 H   0  0  0  0  0  0
   23.8793  -23.1558    2.4673 H   0  0  0  0  0  0
   24.7705  -24.6132    2.2932 H   0  0  0  0  0  0
   25.1612  -22.0125    0.6911 H   0  0  0  0  0  0
   26.2825  -22.7152    1.8451 H   0  0  0  0  0  0
   26.9003  -23.1197   -0.4354 H   0  0  0  0  0  0
   24.9093  -23.4142   -1.6184 H   0  0  0  0  0  0
   25.8601  -24.8847   -1.6793 H   0  0  0  0  0  0
   24.4787  -25.9836    0.0193 H   0  0  0  0  0  0
   23.4325  -25.3360   -1.1802 H   0  0  0  0  0  0
  1  2  1  0  0  0
  1  5  2  0  0  0
  1 16  1  0  0  0
  2  3  2  0  0  0
  3  4  1  0  0  0
  3 14  1  0  0  0
  4  5  1  0  0  0
  5 32  1  0  0  0
  6  7  2  0  0  0
  6 11  1  0  0  0
  6 33  1  0  0  0
  7  8  1  0  0  0
  7 12  1  0  0  0
  8  9  2  0  0  0
  8 34  1  0  0  0
  9 10  1  0  0  0
  9 22  1  0  0  0
 10 11  2  0  0  0
 10 35  1  0  0  0
 11 36  1  0  0  0
 12 13  1  0  0  0
 12 37  1  0  0  0
 12 38  1  0  0  0
 13 14  1  0  0  0
 13 15  2  0  0  0
 14 39  1  0  0  0
 16 17  2  0  0  0
 16 21  1  0  0  0
 17 18  1  0  0  0
 17 40  1  0  0  0
 18 19  2  0  0  0
 18 41  1  0  0  0
 19 20  1  0  0  0
 20 21  2  0  0  0
 20 42  1  0  0  0
 21 43  1  0  0  0
 22 23  1  0  0  0
 23 24  1  0  0  0
 23 44  1  0  0  0
 23 45  1  0  0  0
 24 25  1  0  0  0
 24 46  1  0  0  0
 24 47  1  0  0  0
 25 26  1  0  0  0
 25 48  1  0  0  0
 25 49  1  0  0  0
 26 27  1  0  0  0
 26 31  1  0  0  0
 26 50  1  0  0  0
 27 28  1  0  0  0
 27 51  1  0  0  0
 27 52  1  0  0  0
 28 29  1  0  0  0
 28 53  1  0  0  0
 28 54  1  0  0  0
 29 30  1  0  0  0
 29 55  1  0  0  0
 30 31  1  0  0  0
 30 56  1  0  0  0
 30 57  1  0  0  0
 31 58  1  0  0  0
 31 59  1  0  0  0
M  END
> <s_m_entry_id>
4560

> <s_m_entry_name>
dock_pv.36

> <s_m_Source_Path>
/home/csk/Desktop/cluster/DUD-E-result/akt2

> <s_m_Source_File>
dock_pv.maegz

> <i_m_Source_File_Index>
36

> <chembl_id>
CHEMBL4251324

> <chembl_pref_name>
None

> <i_lp_mmshare_version>
53161

> <i_f3d_flags>
0

> <r_lp_tautomer_probability>
0.999000488399163

> <s_lp_Force_Field>
OPLS_2005

> <r_lp_Energy>
25.288087

> <b_lp_Chiralities_Consistent>
1

> <s_lp_Variant>
CHEMBL2431_lig864-1

> <s_i_glide_gridfile>
glide-grid_3d0e

> <i_i_glide_lignum>
1232

> <i_i_glide_rotatable_bonds>
10

> <r_i_docking_score>
-6.83534881524961

> <r_i_glide_ligand_efficiency>
-0.220495123072568

> <r_i_glide_ligand_efficiency_sa>
-0.692659112773964

> <r_i_glide_ligand_efficiency_ln>
-1.54158063612258

> <r_i_glide_gscore>
-6.83534881524961

> <r_i_glide_lipo>
-2.89455675441052

> <r_i_glide_hbond>
-0.234538331697928

> <r_i_glide_metal>
0

> <r_i_glide_rewards>
-1.49050537161687

> <r_i_glide_evdw>
-52.6656227111816

> <r_i_glide_ecoul>
-3.49176645278931

> <r_i_glide_erotb>
0.941297745953181

> <r_i_glide_esite>
0

> <r_i_glide_emodel>
-74.4664287266036

> <r_i_glide_energy>
-56.1573891639709

> <r_i_glide_einternal>
11.8104410171509

> <i_i_glide_confnum>
13

> <i_i_glide_posenum>
236

> <r_i_glide_eff_state_penalty>
0

> <s_user_duplicate_titles>
CHEMBL2431_lig864

> <s_m_subgroup_title>
dock_pv

> <s_m_subgroupid>
dock_pv

> <b_m_subgroup_collapsed>
1

$$$$
CHEMBL2431_lig1166
                    3D
 Schrodinger Suite 2021-1.
 39 42  0  0  1  0            999 V2000
   22.3593  -20.2046    7.8063 O   0  0  0  0  0  0
   22.7121  -24.0246    9.9070 O   0  0  0  0  0  0
   22.2532  -24.4950    5.0971 O   0  0  0  0  0  0
   21.5165  -24.4894    8.0154 N   0  0  0  0  0  0
   22.3562  -21.5759    7.5337 N   0  0  0  0  0  0
   22.5212  -14.7355   11.1536 N   0  0  0  0  0  0
   22.5209  -14.0950    9.9718 N   0  0  0  0  0  0
   22.1210  -20.0100    9.1302 C   0  0  0  0  0  0
   22.0837  -22.1931    8.6686 C   0  0  0  0  0  0
   22.2409  -18.6218    9.6782 C   0  0  0  0  0  0
   22.1206  -23.6294    8.8951 C   0  0  0  0  0  0
   21.9307  -21.2525    9.6978 C   0  0  0  0  0  0
   22.4480  -16.2309    9.3705 C   0  0  0  0  0  0
   22.5122  -16.0555   10.7863 C   0  0  0  0  0  0
   22.3277  -17.5184    8.8207 C   0  0  0  0  0  0
   22.3350  -18.4396   11.0627 C   0  0  0  0  0  0
   22.5204  -17.1749   11.6280 C   0  0  0  0  0  0
   22.5210  -14.9080    8.8682 C   0  0  0  0  0  0
   20.6400  -24.0812    6.8846 C   0  0  0  0  0  0
   21.5221  -25.9401    8.3394 C   0  0  0  0  0  0
   20.9968  -24.8939    5.6134 C   0  0  2  0  0  0
   21.8869  -26.7454    7.0788 C   0  0  0  0  0  0
   20.9832  -26.4047    5.8926 C   0  0  0  0  0  0
   22.1213  -23.6374    4.6455 H   0  0  0  0  0  0
   22.5251  -13.0809    9.9173 H   0  0  0  0  0  0
   21.7474  -21.4673   10.7404 H   0  0  0  0  0  0
   22.2744  -17.6520    7.7505 H   0  0  0  0  0  0
   22.2908  -19.2956   11.7205 H   0  0  0  0  0  0
   22.5881  -17.0580   12.6974 H   0  0  0  0  0  0
   22.5186  -14.4795    7.8784 H   0  0  0  0  0  0
   20.7147  -23.0305    6.6198 H   0  0  0  0  0  0
   19.5970  -24.2686    7.1309 H   0  0  0  0  0  0
   20.5211  -26.2241    8.6621 H   0  0  0  0  0  0
   22.2320  -26.2055    9.1244 H   0  0  0  0  0  0
   20.2631  -24.6822    4.8343 H   0  0  0  0  0  0
   21.8271  -27.8117    7.2996 H   0  0  0  0  0  0
   22.9210  -26.5534    6.8104 H   0  0  0  0  0  0
   19.9655  -26.7312    6.1093 H   0  0  0  0  0  0
   21.3031  -26.9571    5.0081 H   0  0  0  0  0  0
  1  5  1  0  0  0
  1  8  1  0  0  0
  2 11  2  0  0  0
  3 21  1  0  0  0
  3 24  1  0  0  0
  4 11  1  0  0  0
  4 19  1  0  0  0
  4 20  1  0  0  0
  5  9  2  0  0  0
  6  7  1  0  0  0
  6 14  2  0  0  0
  7 25  1  0  0  0
  7 18  1  0  0  0
  8 12  2  0  0  0
  8 10  1  0  0  0
  9 11  1  0  0  0
  9 12  1  0  0  0
 10 16  1  0  0  0
 10 15  2  0  0  0
 12 26  1  0  0  0
 13 15  1  0  0  0
 13 14  1  0  0  0
 13 18  2  0  0  0
 14 17  1  0  0  0
 15 27  1  0  0  0
 16 17  2  0  0  0
 16 28  1  0  0  0
 17 29  1  0  0  0
 18 30  1  0  0  0
 19 21  1  0  0  0
 19 31  1  0  0  0
 19 32  1  0  0  0
 20 22  1  0  0  0
 20 33  1  0  0  0
 20 34  1  0  0  0
 21 23  1  0  0  0
 21 35  1  0  0  0
 22 23  1  0  0  0
 22 36  1  0  0  0
 22 37  1  0  0  0
 23 38  1  0  0  0
 23 39  1  0  0  0
M  END
> <s_m_entry_id>
4561

> <s_m_entry_name>
dock_pv.37

> <s_m_Source_Path>
/home/csk/Desktop/cluster/DUD-E-result/akt2

> <s_m_Source_File>
dock_pv.maegz

> <i_m_Source_File_Index>
37

> <chembl_id>
CHEMBL1997340

> <chembl_pref_name>
None

> <i_lp_mmshare_version>
53161

> <i_f3d_flags>
0

> <r_lp_tautomer_probability>
0.0196078431372549

> <s_lp_Force_Field>
OPLS_2005

> <r_lp_Energy>
46.26802

> <b_lp_Chiralities_Consistent>
1

> <s_lp_Variant>
CHEMBL2431_lig1166-3

> <s_i_glide_gridfile>
glide-grid_3d0e

> <i_i_glide_lignum>
1679

> <i_i_glide_rotatable_bonds>
4

> <r_i_docking_score>
-6.83382737205814

> <r_i_glide_ligand_efficiency>
-0.297122929219919

> <r_i_glide_ligand_efficiency_sa>
-0.844978086482161

> <r_i_glide_ligand_efficiency_ln>
-1.65248142428431

> <r_i_glide_gscore>
-6.83382737205814

> <r_i_glide_lipo>
-1.70583155114033

> <r_i_glide_hbond>
-0.456

> <r_i_glide_metal>
0

> <r_i_glide_rewards>
-2.30431579130329

> <r_i_glide_evdw>
-34.672779083252

> <r_i_glide_ecoul>
-7.85114669799805

> <r_i_glide_erotb>
0.570749084962497

> <r_i_glide_esite>
-0.0271181557147151

> <r_i_glide_emodel>
-60.423932953437

> <r_i_glide_energy>
-42.52392578125

> <r_i_glide_einternal>
1.36423933506012

> <i_i_glide_confnum>
14

> <i_i_glide_posenum>
12

> <r_i_glide_eff_state_penalty>
0

> <s_user_duplicate_titles>
CHEMBL2431_lig1166

> <s_m_subgroup_title>
dock_pv

> <s_m_subgroupid>
dock_pv

> <b_m_subgroup_collapsed>
1

$$$$
CHEMBL2431_lig1160
                    3D
 Schrodinger Suite 2021-1.
 45 47  0  0  1  0            999 V2000
   19.5499  -29.7640    3.6655 Cl  0  0  0  0  0  0
   23.1806  -22.2721    6.8251 O   0  0  0  0  0  0
   21.3210  -24.8276    9.9695 O   0  0  0  0  0  0
   21.1894  -22.7514    7.8283 N   0  0  0  0  0  0
   22.5187  -14.0952   11.0939 N   0  0  0  0  0  0
   22.1758  -20.5337    8.0758 C   0  0  0  0  0  0
   22.3566  -17.9684    9.2219 C   0  0  0  0  0  0
   22.2185  -21.9318    7.5133 C   0  0  0  0  0  0
   22.4848  -16.6281    9.8647 C   0  0  0  0  0  0
   21.5716  -20.2692    9.3092 C   0  0  0  0  0  0
   22.8332  -19.4972    7.4012 C   0  0  0  0  0  0
   21.6613  -18.9998    9.8678 C   0  0  0  0  0  0
   22.9217  -18.2289    7.9686 C   0  0  0  0  0  0
   21.1197  -24.2108    7.6037 C   0  0  1  0  0  0
   21.0036  -25.9345    5.5734 C   0  0  0  0  0  0
   21.5135  -24.6115    6.1513 C   0  0  0  0  0  0
   22.5210  -15.4529    9.0997 C   0  0  0  0  0  0
   22.5210  -16.4978   11.2639 C   0  0  0  0  0  0
   21.0377  -26.0876    4.1819 C   0  0  0  0  0  0
   20.5210  -26.9819    6.3678 C   0  0  0  0  0  0
   21.9191  -24.9713    8.6940 C   0  0  0  0  0  0
   20.1241  -28.3083    4.3933 C   0  0  0  0  0  0
   22.5207  -14.2172    9.7438 C   0  0  0  0  0  0
   22.5213  -15.2270   11.8356 C   0  0  0  0  0  0
   20.5921  -27.2688    3.5908 C   0  0  0  0  0  0
   20.0967  -28.1699    5.7787 C   0  0  0  0  0  0
   20.4322  -25.2223    9.9461 H   0  0  0  0  0  0
   20.4486  -22.3634    8.3932 H   0  0  0  0  0  0
   21.0568  -21.0418    9.8653 H   0  0  0  0  0  0
   23.3112  -19.6776    6.4496 H   0  0  0  0  0  0
   21.1852  -18.8315   10.8219 H   0  0  0  0  0  0
   23.4676  -17.4614    7.4409 H   0  0  0  0  0  0
   20.0709  -24.4823    7.7091 H   0  0  0  0  0  0
   22.5975  -24.5993    6.0317 H   0  0  0  0  0  0
   21.1295  -23.8279    5.4965 H   0  0  0  0  0  0
   22.4882  -15.4857    8.0207 H   0  0  0  0  0  0
   22.5150  -17.3659   11.9058 H   0  0  0  0  0  0
   21.3951  -25.2819    3.5534 H   0  0  0  0  0  0
   20.4326  -26.8979    7.4391 H   0  0  0  0  0  0
   22.0249  -26.0349    8.4925 H   0  0  0  0  0  0
   22.9210  -24.5588    8.7598 H   0  0  0  0  0  0
   22.5156  -13.2976    9.1750 H   0  0  0  0  0  0
   22.5179  -15.1062   12.9091 H   0  0  0  0  0  0
   20.6044  -27.3741    2.5154 H   0  0  0  0  0  0
   19.7236  -28.9718    6.4004 H   0  0  0  0  0  0
  1 22  1  0  0  0
  2  8  2  0  0  0
  3 21  1  0  0  0
  3 27  1  0  0  0
  4  8  1  0  0  0
  4 14  1  0  0  0
  4 28  1  0  0  0
  5 23  2  0  0  0
  5 24  1  0  0  0
  6  8  1  0  0  0
  6 10  2  0  0  0
  6 11  1  0  0  0
  7  9  1  0  0  0
  7 12  2  0  0  0
  7 13  1  0  0  0
  9 17  2  0  0  0
  9 18  1  0  0  0
 10 12  1  0  0  0
 10 29  1  0  0  0
 11 13  2  0  0  0
 11 30  1  0  0  0
 12 31  1  0  0  0
 13 32  1  0  0  0
 14 16  1  0  0  0
 14 21  1  0  0  0
 14 33  1  0  0  0
 15 16  1  0  0  0
 15 19  2  0  0  0
 15 20  1  0  0  0
 16 34  1  0  0  0
 16 35  1  0  0  0
 17 23  1  0  0  0
 17 36  1  0  0  0
 18 24  2  0  0  0
 18 37  1  0  0  0
 19 25  1  0  0  0
 19 38  1  0  0  0
 20 26  2  0  0  0
 20 39  1  0  0  0
 21 40  1  0  0  0
 21 41  1  0  0  0
 22 25  2  0  0  0
 22 26  1  0  0  0
 23 42  1  0  0  0
 24 43  1  0  0  0
 25 44  1  0  0  0
 26 45  1  0  0  0
M  END
> <s_m_entry_id>
4562

> <s_m_entry_name>
dock_pv.38

> <s_m_Source_Path>
/home/csk/Desktop/cluster/DUD-E-result/akt2

> <s_m_Source_File>
dock_pv.maegz

> <i_m_Source_File_Index>
38

> <chembl_id>
CHEMBL1996931

> <chembl_pref_name>
None

> <i_lp_mmshare_version>
53161

> <i_f3d_flags>
0

> <r_lp_tautomer_probability>
1

> <s_lp_Force_Field>
OPLS_2005

> <r_lp_Energy>
17.090065

> <b_lp_Chiralities_Consistent>
1

> <s_lp_Variant>
CHEMBL2431_lig1160-2

> <s_i_glide_gridfile>
glide-grid_3d0e

> <i_i_glide_lignum>
1669

> <i_i_glide_rotatable_bonds>
8

> <r_i_docking_score>
-6.82543255664796

> <r_i_glide_ligand_efficiency>
-0.262516636794152

> <r_i_glide_ligand_efficiency_sa>
-0.77770450354959

> <r_i_glide_ligand_efficiency_ln>
-1.60293043985785

> <r_i_glide_gscore>
-6.82543255664796

> <r_i_glide_lipo>
-2.07021012558511

> <r_i_glide_hbond>
-0.408083113813355

> <r_i_glide_metal>
0

> <r_i_glide_rewards>
-2.16564171270418

> <r_i_glide_evdw>
-40.8793144226074

> <r_i_glide_ecoul>
-6.63930749893188

> <r_i_glide_erotb>
0.858364241424846

> <r_i_glide_esite>
0

> <r_i_glide_emodel>
-67.2488852724498

> <r_i_glide_energy>
-47.5186219215393

> <r_i_glide_einternal>
3.29576373100281

> <i_i_glide_confnum>
21

> <i_i_glide_posenum>
368

> <r_i_glide_eff_state_penalty>
0

> <s_user_duplicate_titles>
CHEMBL2431_lig1160

> <s_m_subgroup_title>
dock_pv

> <s_m_subgroupid>
dock_pv

> <b_m_subgroup_collapsed>
1

$$$$
CHEMBL2431_lig1327
                    3D
 Schrodinger Suite 2021-1.
 35 37  0  0  1  0            999 V2000
   22.5209  -25.6950   11.8927 O   0  0  0  0  0  0
   22.1515  -22.8686    7.6926 N   0  0  0  0  0  0
   21.5589  -24.0138    9.6215 N   0  0  0  0  0  0
   22.4956  -14.1622   11.0964 N   0  0  0  0  0  0
   22.0670  -20.3726    9.0050 C   0  0  0  0  0  0
   22.4980  -20.4493    7.6514 C   0  0  0  0  0  0
   22.5125  -17.9590    9.0154 C   0  0  0  0  0  0
   22.0610  -19.1204    9.6570 C   0  0  0  0  0  0
   21.6859  -21.5630    9.6712 C   0  0  0  0  0  0
   21.7766  -22.7848    8.9912 C   0  0  0  0  0  0
   22.5206  -16.6451    9.7395 C   0  0  0  0  0  0
   22.9230  -19.2752    6.9949 C   0  0  0  0  0  0
   22.9393  -18.0622    7.6817 C   0  0  0  0  0  0
   22.4881  -21.7274    7.0497 C   0  0  0  0  0  0
   22.5211  -16.5726   11.1453 C   0  0  0  0  0  0
   22.5211  -15.4294    9.0407 C   0  0  0  0  0  0
   22.5186  -15.3297   11.7776 C   0  0  0  0  0  0
   22.4973  -14.2285    9.7441 C   0  0  0  0  0  0
   20.9302  -24.1215   10.9392 C   0  0  0  0  0  0
   21.1468  -25.4895   11.6035 C   0  0  0  0  0  0
   22.7042  -26.6407   11.9069 H   0  0  0  0  0  0
   21.4323  -24.8035    9.0068 H   0  0  0  0  0  0
   21.6974  -19.0914   10.6719 H   0  0  0  0  0  0
   21.3674  -21.4987   10.6987 H   0  0  0  0  0  0
   23.2581  -19.3279    5.9705 H   0  0  0  0  0  0
   23.3036  -17.1980    7.1503 H   0  0  0  0  0  0
   22.7835  -21.8424    6.0144 H   0  0  0  0  0  0
   22.5408  -17.4614   11.7548 H   0  0  0  0  0  0
   22.5029  -15.3926    7.9626 H   0  0  0  0  0  0
   22.5224  -15.2618   12.8558 H   0  0  0  0  0  0
   22.4679  -13.2952    9.2055 H   0  0  0  0  0  0
   19.8707  -23.8622   10.8959 H   0  0  0  0  0  0
   21.3518  -23.3757   11.6109 H   0  0  0  0  0  0
   20.9258  -26.2490   10.8507 H   0  0  0  0  0  0
   20.4362  -25.7110   12.4014 H   0  0  0  0  0  0
  1 20  1  0  0  0
  1 21  1  0  0  0
  2 10  1  0  0  0
  2 14  2  0  0  0
  3 10  1  0  0  0
  3 19  1  0  0  0
  3 22  1  0  0  0
  4 17  2  0  0  0
  4 18  1  0  0  0
  5  6  1  0  0  0
  5  8  2  0  0  0
  5  9  1  0  0  0
  6 12  2  0  0  0
  6 14  1  0  0  0
  7  8  1  0  0  0
  7 11  1  0  0  0
  7 13  2  0  0  0
  8 23  1  0  0  0
  9 10  2  0  0  0
  9 24  1  0  0  0
 11 15  2  0  0  0
 11 16  1  0  0  0
 12 13  1  0  0  0
 12 25  1  0  0  0
 13 26  1  0  0  0
 14 27  1  0  0  0
 15 17  1  0  0  0
 15 28  1  0  0  0
 16 18  2  0  0  0
 16 29  1  0  0  0
 17 30  1  0  0  0
 18 31  1  0  0  0
 19 20  1  0  0  0
 19 32  1  0  0  0
 19 33  1  0  0  0
 20 34  1  0  0  0
 20 35  1  0  0  0
M  END
> <s_m_entry_id>
4563

> <s_m_entry_name>
dock_pv.39

> <s_m_Source_Path>
/home/csk/Desktop/cluster/DUD-E-result/akt2

> <s_m_Source_File>
dock_pv.maegz

> <i_m_Source_File_Index>
39

> <chembl_id>
CHEMBL1998435

> <chembl_pref_name>
None

> <i_lp_mmshare_version>
53161

> <i_f3d_flags>
0

> <r_lp_tautomer_probability>
1

> <s_lp_Force_Field>
OPLS_2005

> <r_lp_Energy>
10.997577

> <b_lp_Chiralities_Consistent>
1

> <s_lp_Variant>
CHEMBL2431_lig1327-1

> <s_i_glide_gridfile>
glide-grid_3d0e

> <i_i_glide_lignum>
1925

> <i_i_glide_rotatable_bonds>
5

> <r_i_docking_score>
-6.80328417042528

> <r_i_glide_ligand_efficiency>
-0.340164208521264

> <r_i_glide_ligand_efficiency_sa>
-0.923347719223148

> <r_i_glide_ligand_efficiency_ln>
-1.70263764052793

> <r_i_glide_gscore>
-6.80328417042528

> <r_i_glide_lipo>
-2.16515754665338

> <r_i_glide_hbond>
-0.349372853600342

> <r_i_glide_metal>
0

> <r_i_glide_rewards>
-2.66240815478836

> <r_i_glide_evdw>
-36.4445304870605

> <r_i_glide_ecoul>
-5.03754138946533

> <r_i_glide_erotb>
1.01114039430789

> <r_i_glide_esite>
-0.0596282769182653

> <r_i_glide_emodel>
-57.3038025877592

> <r_i_glide_energy>
-41.4820718765259

> <r_i_glide_einternal>
4.63080835342407

> <i_i_glide_confnum>
90

> <i_i_glide_posenum>
197

> <r_i_glide_eff_state_penalty>
0

> <s_user_duplicate_titles>
CHEMBL2431_lig1327

> <s_m_subgroup_title>
dock_pv

> <s_m_subgroupid>
dock_pv

> <b_m_subgroup_collapsed>
1

$$$$
469382
                    3D
 Schrodinger Suite 2021-1.
 62 64  0  0  1  0            999 V2000
   20.7380  -19.7422   11.2812 C   0  0  0  0  0  0
   22.1908  -19.2967   11.0724 C   0  0  0  0  0  0
   22.3667  -18.5459    9.8184 N   0  0  0  0  0  0
   22.5210  -19.1301    8.5719 C   0  0  0  0  0  0
   22.5209  -20.4557    8.1204 C   0  0  0  0  0  0
   22.9661  -20.6386    6.7999 C   0  0  0  0  0  0
   23.3210  -19.6286    5.9649 N   0  0  0  0  0  0
   23.1920  -18.3471    6.3825 C   0  0  0  0  0  0
   22.8422  -18.0585    7.7089 C   0  0  0  0  0  0
   22.7675  -16.8714    8.3659 N   0  0  0  0  0  0
   22.5138  -17.1745    9.6162 C   0  0  0  0  0  0
   22.4282  -16.1082   10.6180 C   0  0  0  0  0  0
   22.2372  -14.7494   10.3730 C   0  0  0  0  0  0
   22.1406  -14.0956   11.4931 N   0  0  0  0  0  0
   22.3277  -15.0570   12.4768 O   0  0  0  0  0  0
   22.5214  -16.3093   11.9063 N   0  0  0  0  0  0
   22.1434  -14.0928    9.1867 N   0  0  0  0  0  0
   23.4221  -17.3256    5.3658 C   0  0  0  0  0  0
   23.5781  -16.4951    4.4817 C   0  0  0  0  0  0
   23.7176  -15.5132    3.3826 C   0  0  0  0  0  0
   22.7520  -14.3146    3.5206 C   0  0  0  0  0  0
   25.1731  -15.0628    3.1377 C   0  0  0  0  0  0
   23.3210  -16.0950    2.1905 O   0  0  0  0  0  0
   22.1848  -21.4366    9.0277 O   0  0  0  0  0  0
   22.2657  -22.7913    8.6349 C   0  0  0  0  0  0
   21.5580  -23.6664    9.6913 C   0  0  0  0  0  0
   21.9421  -25.1650    9.6616 C   0  0  0  0  0  0
   21.3210  -25.9835    8.6196 N   0  0  2  0  0  0
   21.3921  -25.4140    7.2765 C   0  0  0  0  0  0
   20.9199  -26.3599    6.1607 C   0  0  1  0  0  0
   20.9878  -25.6689    4.7772 C   0  0  0  0  0  0
   20.1214  -24.5458    4.6963 O   0  0  0  0  0  0
   21.7568  -27.5008    6.1623 O   0  0  0  0  0  0
   19.8926  -26.6666    6.3647 H   0  0  0  0  0  0
   20.6576  -20.4335   12.1210 H   0  0  0  0  0  0
   20.0995  -18.8964   11.5049 H   0  0  0  0  0  0
   20.3267  -20.2500   10.4075 H   0  0  0  0  0  0
   22.8422  -20.1698   11.0309 H   0  0  0  0  0  0
   22.5541  -18.7371   11.9273 H   0  0  0  0  0  0
   23.0539  -21.6245    6.3683 H   0  0  0  0  0  0
   22.2348  -14.5875    8.3103 H   0  0  0  0  0  0
   22.1209  -13.0796    9.1506 H   0  0  0  0  0  0
   22.9121  -13.7342    4.4236 H   0  0  0  0  0  0
   22.8681  -13.6121    2.6971 H   0  0  0  0  0  0
   21.7080  -14.6289    3.5278 H   0  0  0  0  0  0
   25.4786  -14.3525    3.8970 H   0  0  0  0  0  0
   25.8774  -15.8967    3.1132 H   0  0  0  0  0  0
   25.3211  -14.5139    2.2197 H   0  0  0  0  0  0
   23.9653  -16.7767    1.9282 H   0  0  0  0  0  0
   21.7924  -22.8944    7.6625 H   0  0  0  0  0  0
   23.3160  -23.0683    8.5356 H   0  0  0  0  0  0
   21.8323  -23.2836   10.6750 H   0  0  0  0  0  0
   20.4752  -23.5448    9.6270 H   0  0  0  0  0  0
   23.0211  -25.2657    9.6032 H   0  0  0  0  0  0
   21.6711  -25.6153   10.6179 H   0  0  0  0  0  0
   20.3372  -26.0946    8.8992 H   0  0  0  0  0  0
   20.7103  -24.5653    7.2521 H   0  0  0  0  0  0
   22.4028  -25.0633    7.0593 H   0  0  0  0  0  0
   22.0081  -25.3418    4.5689 H   0  0  0  0  0  0
   20.7354  -26.3716    3.9817 H   0  0  0  0  0  0
   20.5840  -23.8339    4.2207 H   0  0  0  0  0  0
   21.8531  -27.7573    7.0857 H   0  0  0  0  0  0
  1  2  1  0  0  0
  1 35  1  0  0  0
  1 36  1  0  0  0
  1 37  1  0  0  0
  2  3  1  0  0  0
  2 38  1  0  0  0
  2 39  1  0  0  0
  3 11  1  0  0  0
  3  4  1  0  0  0
  4  9  2  0  0  0
  4  5  1  0  0  0
  5  6  2  0  0  0
  5 24  1  0  0  0
  6  7  1  0  0  0
  6 40  1  0  0  0
  7  8  2  0  0  0
  8  9  1  0  0  0
  8 18  1  0  0  0
  9 10  1  0  0  0
 10 11  2  0  0  0
 11 12  1  0  0  0
 12 16  2  0  0  0
 12 13  1  0  0  0
 13 14  2  0  0  0
 13 17  1  0  0  0
 14 15  1  0  0  0
 15 16  1  0  0  0
 17 41  1  0  0  0
 17 42  1  0  0  0
 18 19  3  0  0  0
 19 20  1  0  0  0
 20 21  1  0  0  0
 20 22  1  0  0  0
 20 23  1  0  0  0
 21 43  1  0  0  0
 21 44  1  0  0  0
 21 45  1  0  0  0
 22 46  1  0  0  0
 22 47  1  0  0  0
 22 48  1  0  0  0
 23 49  1  0  0  0
 24 25  1  0  0  0
 25 26  1  0  0  0
 25 50  1  0  0  0
 25 51  1  0  0  0
 26 27  1  0  0  0
 26 52  1  0  0  0
 26 53  1  0  0  0
 27 28  1  0  0  0
 27 54  1  0  0  0
 27 55  1  0  0  0
 28 29  1  0  0  0
 28 56  1  0  0  0
 29 30  1  0  0  0
 29 57  1  0  0  0
 29 58  1  0  0  0
 30 34  1  0  0  0
 30 31  1  0  0  0
 30 33  1  0  0  0
 31 32  1  0  0  0
 31 59  1  0  0  0
 31 60  1  0  0  0
 32 61  1  0  0  0
 33 62  1  0  0  0
M  END
> <s_m_entry_id>
5961

> <s_m_entry_name>
ligand_docking-pose.1

> <s_m_Source_Path>
/home/csk/Desktop/cluster/DUD-E-result/akt2

> <s_m_Source_File>
ligand_docking-pose.sdf

> <i_m_Source_File_Index>
1

> <i_lp_mmshare_version>
53161

> <r_lp_tautomer_probability>
1

> <s_lp_Force_Field>
OPLS_2005

> <r_lp_Energy>
34.760606

> <b_lp_Chiralities_Consistent>
1

> <s_lp_Variant>
469382-1

> <s_i_glide_gridfile>
glide-grid_3d0e

> <i_i_glide_lignum>
282

> <i_i_glide_rotatable_bonds>
15

> <r_i_docking_score>
-7.64165352230319

> <r_i_glide_ligand_efficiency>
-0.231565258251612

> <r_i_glide_ligand_efficiency_sa>
-0.742753514610713

> <r_i_glide_ligand_efficiency_ln>
-1.69946417699584

> <r_i_glide_gscore>
-7.64165352230319

> <r_i_glide_lipo>
-2.54037526603588

> <r_i_glide_hbond>
-1.14193923490662

> <r_i_glide_metal>
0

> <r_i_glide_rewards>
-0.104230612467328

> <r_i_glide_evdw>
-39.3461799621582

> <r_i_glide_ecoul>
-19.5738277435303

> <r_i_glide_erotb>
1.04827475074408

> <r_i_glide_esite>
0

> <r_i_glide_emodel>
-83.99262230384

> <r_i_glide_energy>
-58.9200077056885

> <r_i_glide_einternal>
5.67840003967285

> <i_i_glide_confnum>
73

> <i_i_glide_posenum>
197

> <r_i_glide_eff_state_penalty>
0

> <i_f3d_flags>
0

> <s_user_duplicate_titles>
469382

> <s_m_subgroup_title>
dock_pv

> <s_m_subgroupid>
dock_pv1

> <b_m_subgroup_collapsed>
0

$$$$
