CHEMBL1937_lig141
                    3D
 Schrodinger Suite 2021-1.
 37 39  0  0  1  0            999 V2000
   65.8278   28.9444    2.0195 C   0  0  0  0  0  0
   66.1512   29.1726    0.6816 C   0  0  0  0  0  0
   65.2549   28.7412   -0.2974 C   0  0  0  0  0  0
   64.1072   28.0421    0.0487 C   0  0  0  0  0  0
   63.8180   27.7958    1.3837 C   0  0  0  0  0  0
   64.6482   28.2851    2.3860 C   0  0  0  0  0  0
   64.3012   28.1150    3.8119 C   0  0  0  0  0  0
   63.0180   28.4714    4.2701 C   0  0  0  0  0  0
   62.7594   28.5064    5.6380 C   0  0  0  0  0  0
   63.7580   28.1150    6.5298 C   0  0  0  0  0  0
   65.0179   27.7150    6.0872 C   0  0  0  0  0  0
   65.2903   27.7150    4.7299 C   0  0  0  0  0  0
   65.5144   28.9150   -1.6160 O   0  0  0  0  0  0
   67.4180   29.7150    0.3840 N   0  0  0  0  0  0
   67.7172   30.6674   -0.5139 C   0  0  0  0  0  0
   69.1494   31.1341   -0.5760 C   0  0  0  0  0  0
   66.8491   31.1932   -1.2160 O   0  0  0  0  0  0
   69.4375   32.4847   -0.8160 C   0  0  0  0  0  0
   70.7594   32.9149   -0.9203 C   0  0  0  0  0  0
   71.7973   32.0036   -0.7560 C   0  0  0  0  0  0
   71.5248   30.6629   -0.5109 C   0  0  0  0  0  0
   70.2041   30.2276   -0.4371 C   0  0  0  0  0  0
   66.5106   29.2807    2.7839 H   0  0  0  0  0  0
   63.4383   27.6781   -0.7186 H   0  0  0  0  0  0
   62.9312   27.2400    1.6443 H   0  0  0  0  0  0
   62.2492   28.7790    3.5776 H   0  0  0  0  0  0
   61.7846   28.7916    6.0047 H   0  0  0  0  0  0
   63.5500   28.1037    7.5840 H   0  0  0  0  0  0
   65.7766   27.4032    6.7880 H   0  0  0  0  0  0
   66.2756   27.4432    4.3897 H   0  0  0  0  0  0
   65.5212   28.0215   -2.0160 H   0  0  0  0  0  0
   68.1628   29.4108    1.0081 H   0  0  0  0  0  0
   68.6400   33.2044   -0.9366 H   0  0  0  0  0  0
   70.9888   33.9486   -1.1315 H   0  0  0  0  0  0
   72.8232   32.3348   -0.8303 H   0  0  0  0  0  0
   72.3385   29.9579   -0.4160 H   0  0  0  0  0  0
   70.0023   29.1765   -0.3093 H   0  0  0  0  0  0
  1  6  1  0  0  0
  1  2  2  0  0  0
  1 23  1  0  0  0
  2 14  1  0  0  0
  2  3  1  0  0  0
  3 13  1  0  0  0
  3  4  2  0  0  0
  4  5  1  0  0  0
  4 24  1  0  0  0
  5  6  2  0  0  0
  5 25  1  0  0  0
  6  7  1  0  0  0
  7 12  1  0  0  0
  7  8  2  0  0  0
  8  9  1  0  0  0
  8 26  1  0  0  0
  9 10  2  0  0  0
  9 27  1  0  0  0
 10 11  1  0  0  0
 10 28  1  0  0  0
 11 12  2  0  0  0
 11 29  1  0  0  0
 12 30  1  0  0  0
 13 31  1  0  0  0
 14 15  1  0  0  0
 14 32  1  0  0  0
 15 16  1  0  0  0
 15 17  2  0  0  0
 16 18  2  0  0  0
 16 22  1  0  0  0
 18 19  1  0  0  0
 18 33  1  0  0  0
 19 20  2  0  0  0
 19 34  1  0  0  0
 20 21  1  0  0  0
 20 35  1  0  0  0
 21 22  2  0  0  0
 21 36  1  0  0  0
 22 37  1  0  0  0
M  END
> <s_m_entry_id>
52280

> <s_m_entry_name>
dock_pv.2

> <s_m_Source_Path>
/home/csk/Desktop/cluster/DUD-E-result/hdac2

> <s_m_Source_File>
dock_pv.maegz

> <i_m_Source_File_Index>
2

> <chembl_id>
CHEMBL269935

> <chembl_pref_name>
None

> <i_lp_mmshare_version>
53161

> <i_f3d_flags>
0

> <r_lp_tautomer_probability>
0.999999999997365

> <s_lp_Force_Field>
OPLS_2005

> <r_lp_Energy>
24.739045

> <b_lp_Chiralities_Consistent>
1

> <s_lp_Variant>
CHEMBL1937_lig141-1

> <s_i_glide_gridfile>
glide-grid_3max

> <i_i_glide_lignum>
166

> <i_i_glide_rotatable_bonds>
5

> <r_i_docking_score>
-10.7831924949625

> <r_i_glide_ligand_efficiency>
-0.490145113407386

> <r_i_glide_ligand_efficiency_sa>
-1.37340588408096

> <r_i_glide_ligand_efficiency_ln>
-2.63580557227184

> <r_i_glide_gscore>
-10.7831924949625

> <r_i_glide_lipo>
-3.80311551526015

> <r_i_glide_hbond>
-0.304

> <r_i_glide_metal>
-2.3

> <r_i_glide_rewards>
-2.02806734786258

> <r_i_glide_evdw>
-2.49783229827881

> <r_i_glide_ecoul>
-19.7347316741943

> <r_i_glide_erotb>
0.870001965183372

> <r_i_glide_esite>
-0.132910230980043

> <r_i_glide_emodel>
-33.3086861982951

> <r_i_glide_energy>
-22.2325639724731

> <r_i_glide_einternal>
6.81216812133789

> <i_i_glide_confnum>
26

> <i_i_glide_posenum>
310

> <r_i_glide_eff_state_penalty>
0

> <s_user_duplicate_titles>
CHEMBL1937_lig141,436432

> <s_m_subgroup_title>
dock_pv

> <s_m_subgroupid>
dock_pv

> <b_m_subgroup_collapsed>
1

$$$$
CHEMBL1937_lig142
                    3D
 Schrodinger Suite 2021-1.
 28 29  0  0  1  0            999 V2000
   65.9225   29.1390    1.0146 C   0  0  0  0  0  0
   64.9309   28.6869    0.1406 C   0  0  0  0  0  0
   63.8428   27.9490    0.6117 C   0  0  0  0  0  0
   63.6835   27.7257    1.9762 C   0  0  0  0  0  0
   64.6180   28.2395    2.8653 C   0  0  0  0  0  0
   65.7410   28.9150    2.3819 C   0  0  0  0  0  0
   67.1497   29.7150    0.6112 N   0  0  0  0  0  0
   67.4606   30.5150   -0.4267 C   0  0  0  0  0  0
   68.8894   30.9811   -0.5333 C   0  0  0  0  0  0
   66.6310   30.9711   -1.2160 O   0  0  0  0  0  0
   65.0180   28.9150   -1.2160 N   0  0  0  0  0  0
   69.1684   32.3268   -0.8094 C   0  0  0  0  0  0
   70.4834   32.7576   -0.9663 C   0  0  0  0  0  0
   71.5282   31.8518   -0.8158 C   0  0  0  0  0  0
   71.2649   30.5159   -0.5348 C   0  0  0  0  0  0
   69.9477   30.0819   -0.4160 C   0  0  0  0  0  0
   63.1027   27.5606   -0.0736 H   0  0  0  0  0  0
   62.8302   27.1724    2.3420 H   0  0  0  0  0  0
   64.5031   28.0713    3.9261 H   0  0  0  0  0  0
   66.4862   29.2341    3.0815 H   0  0  0  0  0  0
   67.9280   29.4636    1.2176 H   0  0  0  0  0  0
   64.0975   28.6978   -1.6070 H   0  0  0  0  0  0
   65.7008   28.2487   -1.5779 H   0  0  0  0  0  0
   68.3660   33.0445   -0.9053 H   0  0  0  0  0  0
   70.6958   33.7880   -1.2052 H   0  0  0  0  0  0
   72.5507   32.1832   -0.9268 H   0  0  0  0  0  0
   72.0822   29.8148   -0.4426 H   0  0  0  0  0  0
   69.7519   29.0327   -0.2558 H   0  0  0  0  0  0
  1  6  1  0  0  0
  1  2  2  0  0  0
  1  7  1  0  0  0
  2  3  1  0  0  0
  2 11  1  0  0  0
  3  4  2  0  0  0
  3 17  1  0  0  0
  4  5  1  0  0  0
  4 18  1  0  0  0
  5  6  2  0  0  0
  5 19  1  0  0  0
  6 20  1  0  0  0
  7  8  1  0  0  0
  7 21  1  0  0  0
  8  9  1  0  0  0
  8 10  2  0  0  0
  9 12  2  0  0  0
  9 16  1  0  0  0
 11 22  1  0  0  0
 11 23  1  0  0  0
 12 13  1  0  0  0
 12 24  1  0  0  0
 13 14  2  0  0  0
 13 25  1  0  0  0
 14 15  1  0  0  0
 14 26  1  0  0  0
 15 16  2  0  0  0
 15 27  1  0  0  0
 16 28  1  0  0  0
M  END
> <s_m_entry_id>
52281

> <s_m_entry_name>
dock_pv.3

> <s_m_Source_Path>
/home/csk/Desktop/cluster/DUD-E-result/hdac2

> <s_m_Source_File>
dock_pv.maegz

> <i_m_Source_File_Index>
3

> <chembl_id>
CHEMBL405072

> <chembl_pref_name>
None

> <i_lp_mmshare_version>
53161

> <i_f3d_flags>
0

> <r_lp_tautomer_probability>
1

> <s_lp_Force_Field>
OPLS_2005

> <r_lp_Energy>
20.111433

> <b_lp_Chiralities_Consistent>
1

> <s_lp_Variant>
CHEMBL1937_lig142-1

> <s_i_glide_gridfile>
glide-grid_3max

> <i_i_glide_lignum>
167

> <i_i_glide_rotatable_bonds>
3

> <r_i_docking_score>
-10.2951189978364

> <r_i_glide_ligand_efficiency>
-0.643444937364773

> <r_i_glide_ligand_efficiency_sa>
-1.62137964056986

> <r_i_glide_ligand_efficiency_ln>
-2.72892694004667

> <r_i_glide_gscore>
-10.2951189978364

> <r_i_glide_lipo>
-3.24713196102853

> <r_i_glide_hbond>
-0.564394229331116

> <r_i_glide_metal>
-2.3

> <r_i_glide_rewards>
-2.22289024596792

> <r_i_glide_evdw>
-8.19010734558105

> <r_i_glide_ecoul>
-16.033561706543

> <r_i_glide_erotb>
1.10903917080316

> <r_i_glide_esite>
-0.255202109051469

> <r_i_glide_emodel>
-35.2153650966428

> <r_i_glide_energy>
-24.223669052124

> <r_i_glide_einternal>
8.54994678497314

> <i_i_glide_confnum>
9

> <i_i_glide_posenum>
76

> <r_i_glide_eff_state_penalty>
0

> <s_user_duplicate_titles>
CHEMBL1937_lig142

> <s_m_subgroup_title>
dock_pv

> <s_m_subgroupid>
dock_pv

> <b_m_subgroup_collapsed>
1

$$$$
CHEMBL1937_lig177
                    3D
 Schrodinger Suite 2021-1.
 27 28  0  0  1  0            999 V2000
   65.7418   28.9150    2.3819 C   0  0  0  0  0  0
   65.9217   29.1402    1.0144 C   0  0  0  0  0  0
   64.9279   28.6906    0.1411 C   0  0  0  0  0  0
   63.8377   27.9563    0.6136 C   0  0  0  0  0  0
   63.6801   27.7328    1.9783 C   0  0  0  0  0  0
   64.6180   28.2422    2.8663 C   0  0  0  0  0  0
   65.0180   28.9150   -1.2160 N   0  0  0  0  0  0
   67.1499   29.7150    0.6114 N   0  0  0  0  0  0
   67.4613   30.5150   -0.4261 C   0  0  0  0  0  0
   68.8850   30.9906   -0.5235 C   0  0  0  0  0  0
   66.6338   30.9712   -1.2160 O   0  0  0  0  0  0
   69.1721   32.3395   -0.7829 C   0  0  0  0  0  0
   70.4966   32.7597   -0.9203 C   0  0  0  0  0  0
   71.5117   31.8201   -0.7579 C   0  0  0  0  0  0
   71.2608   30.5150   -0.5022 N   0  0  0  0  0  0
   69.9661   30.1150   -0.4160 C   0  0  0  0  0  0
   66.4894   29.2309    3.0804 H   0  0  0  0  0  0
   63.0959   27.5701   -0.0711 H   0  0  0  0  0  0
   62.8257   27.1819    2.3453 H   0  0  0  0  0  0
   64.5045   28.0729    3.9271 H   0  0  0  0  0  0
   64.1056   28.6840   -1.6187 H   0  0  0  0  0  0
   65.7168   28.2620   -1.5704 H   0  0  0  0  0  0
   67.9247   29.4641    1.2226 H   0  0  0  0  0  0
   68.3737   33.0616   -0.8785 H   0  0  0  0  0  0
   70.7354   33.7869   -1.1440 H   0  0  0  0  0  0
   72.5521   32.1016   -0.8373 H   0  0  0  0  0  0
   69.8069   29.0564   -0.2809 H   0  0  0  0  0  0
  1  6  1  0  0  0
  1  2  2  0  0  0
  1 17  1  0  0  0
  2  8  1  0  0  0
  2  3  1  0  0  0
  3  7  1  0  0  0
  3  4  2  0  0  0
  4  5  1  0  0  0
  4 18  1  0  0  0
  5  6  2  0  0  0
  5 19  1  0  0  0
  6 20  1  0  0  0
  7 21  1  0  0  0
  7 22  1  0  0  0
  8  9  1  0  0  0
  8 23  1  0  0  0
  9 10  1  0  0  0
  9 11  2  0  0  0
 10 12  2  0  0  0
 10 16  1  0  0  0
 12 13  1  0  0  0
 12 24  1  0  0  0
 13 14  2  0  0  0
 13 25  1  0  0  0
 14 15  1  0  0  0
 14 26  1  0  0  0
 15 16  2  0  0  0
 16 27  1  0  0  0
M  END
> <s_m_entry_id>
52282

> <s_m_entry_name>
dock_pv.4

> <s_m_Source_Path>
/home/csk/Desktop/cluster/DUD-E-result/hdac2

> <s_m_Source_File>
dock_pv.maegz

> <i_m_Source_File_Index>
4

> <chembl_id>
CHEMBL236678

> <chembl_pref_name>
None

> <i_lp_mmshare_version>
53161

> <i_f3d_flags>
0

> <r_lp_tautomer_probability>
1

> <s_lp_Force_Field>
OPLS_2005

> <r_lp_Energy>
18.221175

> <b_lp_Chiralities_Consistent>
1

> <s_lp_Variant>
CHEMBL1937_lig177-1

> <s_i_glide_gridfile>
glide-grid_3max

> <i_i_glide_lignum>
210

> <i_i_glide_rotatable_bonds>
3

> <r_i_docking_score>
-10.0412674725453

> <r_i_glide_ligand_efficiency>
-0.627579217034082

> <r_i_glide_ligand_efficiency_sa>
-1.58140053057404

> <r_i_glide_ligand_efficiency_ln>
-2.66163852246895

> <r_i_glide_gscore>
-10.0412674725453

> <r_i_glide_lipo>
-3.01704532641635

> <r_i_glide_hbond>
-0.549985269404414

> <r_i_glide_metal>
-2.3

> <r_i_glide_rewards>
-2.19937263436373

> <r_i_glide_evdw>
-9.04601001739502

> <r_i_glide_ecoul>
-15.7859783172607

> <r_i_glide_erotb>
1.10041814788238

> <r_i_glide_esite>
-0.255085141784344

> <r_i_glide_emodel>
-36.0360635129275

> <r_i_glide_energy>
-24.8319883346558

> <r_i_glide_einternal>
8.86322784423828

> <i_i_glide_confnum>
12

> <i_i_glide_posenum>
173

> <r_i_glide_eff_state_penalty>
0

> <s_user_duplicate_titles>
CHEMBL1937_lig177

> <s_m_subgroup_title>
dock_pv

> <s_m_subgroupid>
dock_pv

> <b_m_subgroup_collapsed>
1

$$$$
CHEMBL1937_lig850
                    3D
 Schrodinger Suite 2021-1.
 46 49  0  0  1  0            999 V2000
   69.4170   32.4956   -1.2136 O   0  0  0  0  0  0
   69.3088   31.1044   -0.8807 C   0  0  1  0  0  0
   70.3145   30.7612    0.2267 C   0  0  0  0  0  0
   71.7603   31.0333   -0.2310 C   0  0  0  0  0  0
   67.8225   30.7911   -0.5538 C   0  0  0  0  0  0
   66.9286   31.3164   -1.2160 O   0  0  0  0  0  0
   67.5107   29.8744    0.3840 N   0  0  0  0  0  0
   66.2399   29.3142    0.6834 C   0  0  0  0  0  0
   65.4029   28.8281   -0.3121 C   0  0  0  0  0  0
   64.2456   28.1150   -0.0171 C   0  0  0  0  0  0
   63.9109   27.8570    1.2986 C   0  0  0  0  0  0
   64.7198   28.3359    2.3255 C   0  0  0  0  0  0
   65.8833   29.0569    2.0076 C   0  0  0  0  0  0
   64.3134   28.1150    3.7231 C   0  0  0  0  0  0
   63.0179   28.5142    4.0880 C   0  0  0  0  0  0
   62.6279   28.5147    5.4187 C   0  0  0  0  0  0
   63.5314   28.0659    6.3741 C   0  0  0  0  0  0
   64.8413   27.7151    6.0402 C   0  0  0  0  0  0
   65.2326   27.7171    4.7086 C   0  0  0  0  0  0
   63.0663   27.7150    7.5840 F   0  0  0  0  0  0
   65.8177   28.9150   -1.6160 N   0  0  0  0  0  0
   71.8544   32.2791   -1.1039 C   0  0  0  0  0  0
   70.6851   32.9011   -1.5837 C   0  0  0  0  0  0
   70.7563   34.0191   -2.4160 C   0  0  0  0  0  0
   71.9978   34.5284   -2.7904 C   0  0  0  0  0  0
   73.1646   33.9255   -2.3233 C   0  0  0  0  0  0
   73.0901   32.8121   -1.4854 C   0  0  0  0  0  0
   69.5051   30.5171   -1.7812 H   0  0  0  0  0  0
   70.0918   31.3150    1.1368 H   0  0  0  0  0  0
   70.2180   29.7150    0.4743 H   0  0  0  0  0  0
   72.1167   30.1837   -0.8159 H   0  0  0  0  0  0
   72.4277   31.1104    0.6296 H   0  0  0  0  0  0
   68.2529   29.5305    0.9884 H   0  0  0  0  0  0
   63.6265   27.7157   -0.8087 H   0  0  0  0  0  0
   63.0190   27.2878    1.5179 H   0  0  0  0  0  0
   66.5410   29.4031    2.7841 H   0  0  0  0  0  0
   62.3138   28.8406    3.3385 H   0  0  0  0  0  0
   61.6089   28.7400    5.6956 H   0  0  0  0  0  0
   65.5135   27.3477    6.8008 H   0  0  0  0  0  0
   66.2391   27.4402    4.4445 H   0  0  0  0  0  0
   65.3815   28.1123   -2.0921 H   0  0  0  0  0  0
   66.8285   28.7717   -1.6373 H   0  0  0  0  0  0
   69.8515   34.4998   -2.7576 H   0  0  0  0  0  0
   72.0555   35.3954   -3.4325 H   0  0  0  0  0  0
   74.1285   34.3216   -2.6078 H   0  0  0  0  0  0
   74.0028   32.3514   -1.1332 H   0  0  0  0  0  0
  1 23  1  0  0  0
  1  2  1  0  0  0
  2  3  1  0  0  0
  2  5  1  0  0  0
  2 28  1  0  0  0
  3  4  1  0  0  0
  3 29  1  0  0  0
  3 30  1  0  0  0
  4 22  1  0  0  0
  4 31  1  0  0  0
  4 32  1  0  0  0
  5  6  2  0  0  0
  5  7  1  0  0  0
  7  8  1  0  0  0
  7 33  1  0  0  0
  8  9  1  0  0  0
  8 13  2  0  0  0
  9 10  2  0  0  0
  9 21  1  0  0  0
 10 11  1  0  0  0
 10 34  1  0  0  0
 11 12  2  0  0  0
 11 35  1  0  0  0
 12 13  1  0  0  0
 12 14  1  0  0  0
 13 36  1  0  0  0
 14 15  1  0  0  0
 14 19  2  0  0  0
 15 16  2  0  0  0
 15 37  1  0  0  0
 16 17  1  0  0  0
 16 38  1  0  0  0
 17 18  2  0  0  0
 17 20  1  0  0  0
 18 19  1  0  0  0
 18 39  1  0  0  0
 19 40  1  0  0  0
 21 41  1  0  0  0
 21 42  1  0  0  0
 22 23  2  0  0  0
 22 27  1  0  0  0
 23 24  1  0  0  0
 24 25  2  0  0  0
 24 43  1  0  0  0
 25 26  1  0  0  0
 25 44  1  0  0  0
 26 27  2  0  0  0
 26 45  1  0  0  0
 27 46  1  0  0  0
M  END
> <s_m_entry_id>
52283

> <s_m_entry_name>
dock_pv.5

> <s_m_Source_Path>
/home/csk/Desktop/cluster/DUD-E-result/hdac2

> <s_m_Source_File>
dock_pv.maegz

> <i_m_Source_File_Index>
5

> <chembl_id>
CHEMBL3828015

> <chembl_pref_name>
None

> <i_lp_mmshare_version>
53161

> <i_f3d_flags>
0

> <r_lp_tautomer_probability>
1

> <s_lp_Force_Field>
OPLS_2005

> <r_lp_Energy>
27.818018

> <b_lp_Chiralities_Consistent>
1

> <s_lp_Variant>
CHEMBL1937_lig850-2

> <s_i_glide_gridfile>
glide-grid_3max

> <i_i_glide_lignum>
930

> <i_i_glide_rotatable_bonds>
4

> <r_i_docking_score>
-9.99586457145372

> <r_i_glide_ligand_efficiency>
-0.370217206350138

> <r_i_glide_ligand_efficiency_sa>
-1.11065161783024

> <r_i_glide_ligand_efficiency_ln>
-2.32687247752756

> <r_i_glide_gscore>
-9.99586457145372

> <r_i_glide_lipo>
-3.74761217039206

> <r_i_glide_hbond>
-0.798850288811023

> <r_i_glide_metal>
-0.787308585734287

> <r_i_glide_rewards>
-1.59676894751926

> <r_i_glide_evdw>
1.55352890491486

> <r_i_glide_ecoul>
-23.3248596191406

> <r_i_glide_erotb>
0.584826127741981

> <r_i_glide_esite>
-0.229098209113727

> <r_i_glide_emodel>
-30.3132151242853

> <r_i_glide_energy>
-21.7713307142258

> <r_i_glide_einternal>
10.3987255096436

> <i_i_glide_confnum>
40

> <i_i_glide_posenum>
337

> <r_i_glide_eff_state_penalty>
0

> <s_user_duplicate_titles>
CHEMBL1937_lig850

> <s_m_subgroup_title>
dock_pv

> <s_m_subgroupid>
dock_pv

> <b_m_subgroup_collapsed>
1

$$$$
CHEMBL1937_lig788
                    3D
 Schrodinger Suite 2021-1.
 31 33  0  0  1  0            999 V2000
   65.0180   28.9150   -1.2160 N   0  0  0  0  0  0
   65.0062   28.7468    0.1474 C   0  0  0  0  0  0
   63.9231   28.0693    0.7089 C   0  0  0  0  0  0
   63.8180   27.9489    2.0901 C   0  0  0  0  0  0
   62.7642   27.3155    2.6507 F   0  0  0  0  0  0
   64.7866   28.5150    2.8998 C   0  0  0  0  0  0
   65.8841   29.1423    2.3255 C   0  0  0  0  0  0
   66.0464   29.2273    0.9453 C   0  0  0  0  0  0
   67.2882   29.7150    0.4678 N   0  0  0  0  0  0
   67.5408   30.5904   -0.5040 C   0  0  0  0  0  0
   66.6487   31.0507   -1.2160 O   0  0  0  0  0  0
   68.9436   31.1434   -0.5719 C   0  0  0  0  0  0
   69.1149   32.5105   -0.8160 C   0  0  0  0  0  0
   70.3673   33.0848   -1.0306 C   0  0  0  0  0  0
   71.4739   32.2779   -0.8160 C   0  0  0  0  0  0
   72.8293   32.5095   -0.8307 N   0  0  0  0  0  0
   73.4297   31.3201   -0.5069 C   0  0  0  0  0  0
   72.5824   30.3441   -0.3282 N   0  0  0  0  0  0
   71.3477   30.9087   -0.4985 C   0  0  0  0  0  0
   70.0709   30.3253   -0.4160 C   0  0  0  0  0  0
   64.0762   28.7115   -1.5596 H   0  0  0  0  0  0
   65.6673   28.2225   -1.5923 H   0  0  0  0  0  0
   63.1448   27.6534    0.0855 H   0  0  0  0  0  0
   64.7016   28.4314    3.9722 H   0  0  0  0  0  0
   66.6180   29.5676    2.9640 H   0  0  0  0  0  0
   68.0790   29.4402    1.0464 H   0  0  0  0  0  0
   68.2447   33.1451   -0.9157 H   0  0  0  0  0  0
   70.4774   34.1150   -1.3079 H   0  0  0  0  0  0
   73.3340   33.3674   -0.9983 H   0  0  0  0  0  0
   74.5064   31.2533   -0.4160 H   0  0  0  0  0  0
   69.9652   29.2704   -0.2321 H   0  0  0  0  0  0
  1  2  1  0  0  0
  1 21  1  0  0  0
  1 22  1  0  0  0
  2  3  2  0  0  0
  2  8  1  0  0  0
  3  4  1  0  0  0
  3 23  1  0  0  0
  4  5  1  0  0  0
  4  6  2  0  0  0
  6  7  1  0  0  0
  6 24  1  0  0  0
  7  8  2  0  0  0
  7 25  1  0  0  0
  8  9  1  0  0  0
  9 10  1  0  0  0
  9 26  1  0  0  0
 10 11  2  0  0  0
 10 12  1  0  0  0
 12 13  2  0  0  0
 12 20  1  0  0  0
 13 14  1  0  0  0
 13 27  1  0  0  0
 14 15  2  0  0  0
 14 28  1  0  0  0
 15 16  1  0  0  0
 15 19  1  0  0  0
 16 17  1  0  0  0
 16 29  1  0  0  0
 17 18  2  0  0  0
 17 30  1  0  0  0
 18 19  1  0  0  0
 19 20  2  0  0  0
 20 31  1  0  0  0
M  END
> <s_m_entry_id>
52284

> <s_m_entry_name>
dock_pv.6

> <s_m_Source_Path>
/home/csk/Desktop/cluster/DUD-E-result/hdac2

> <s_m_Source_File>
dock_pv.maegz

> <i_m_Source_File_Index>
6

> <chembl_id>
CHEMBL3664025

> <chembl_pref_name>
None

> <i_lp_mmshare_version>
53161

> <i_f3d_flags>
0

> <r_lp_tautomer_probability>
1

> <s_lp_Force_Field>
OPLS_2005

> <r_lp_Energy>
18.957945

> <b_lp_Chiralities_Consistent>
1

> <s_lp_Variant>
CHEMBL1937_lig788-1

> <s_i_glide_gridfile>
glide-grid_3max

> <i_i_glide_lignum>
861

> <i_i_glide_rotatable_bonds>
3

> <r_i_docking_score>
-9.8918076572108

> <r_i_glide_ligand_efficiency>
-0.49459038286054

> <r_i_glide_ligand_efficiency_sa>
-1.34252484689445

> <r_i_glide_ligand_efficiency_ln>
-2.47559320294815

> <r_i_glide_gscore>
-9.8918076572108

> <r_i_glide_lipo>
-2.88745101776207

> <r_i_glide_hbond>
-0.582528734116

> <r_i_glide_metal>
-2.3

> <r_i_glide_rewards>
-1.79246899822507

> <r_i_glide_evdw>
-9.25777626037598

> <r_i_glide_ecoul>
-15.3024282455444

> <r_i_glide_erotb>
0.73450359287586

> <r_i_glide_esite>
-0.30560945013306

> <r_i_glide_emodel>
-35.602966288195

> <r_i_glide_energy>
-24.5602045059204

> <r_i_glide_einternal>
7.09305429458618

> <i_i_glide_confnum>
12

> <i_i_glide_posenum>
209

> <r_i_glide_eff_state_penalty>
0

> <s_user_duplicate_titles>
CHEMBL1937_lig788

> <s_m_subgroup_title>
dock_pv

> <s_m_subgroupid>
dock_pv

> <b_m_subgroup_collapsed>
1

$$$$
CHEMBL1937_lig211
                    3D
 Schrodinger Suite 2021-1.
 45 47  0  0  1  0            999 V2000
   65.4439   28.7224    1.4413 C   0  0  0  0  0  0
   65.1037   28.7313    2.7114 N   0  0  0  0  0  0
   63.9455   28.1280    2.9417 C   0  0  0  0  0  0
   63.4196   27.5240    1.8177 C   0  0  0  0  0  0
   64.3600   27.8499    0.4080 S   0  0  0  0  0  0
   63.2683   28.1615    4.2797 C   0  0  0  0  0  0
   61.8813   28.3318    4.3470 C   0  0  0  0  0  0
   61.2466   28.5150    5.5741 C   0  0  0  0  0  0
   61.9974   28.5151    6.7457 C   0  0  0  0  0  0
   63.3740   28.3063    6.6956 C   0  0  0  0  0  0
   64.0005   28.1150    5.4737 C   0  0  0  0  0  0
   66.9350   29.7772   -0.2140 C   0  0  0  0  0  0
   68.2122   30.6255   -0.2441 C   0  0  0  0  0  0
   66.6180   29.3150    1.0105 N   0  0  0  0  0  0
   66.2180   29.7150   -1.2160 O   0  0  0  0  0  0
   69.3339   30.1147   -1.1663 C   0  0  0  0  0  0
   70.6422   30.9136   -0.9720 C   0  0  0  0  0  0
   70.5490   32.4236   -1.2661 C   0  0  0  0  0  0
   71.8690   33.1262   -1.0476 C   0  0  0  0  0  0
   71.9869   34.3766   -1.5526 O   0  0  0  0  0  0
   73.2509   34.8715   -1.2273 N   0  0  0  0  0  0
   73.8865   33.9184   -0.5716 C   0  0  0  0  0  0
   73.0456   32.8069   -0.4059 C   0  0  0  0  0  0
   75.2193   34.0747   -0.0304 C   0  0  0  0  0  0
   75.8605   32.9150    0.2185 N   0  0  0  0  0  0
   75.7145   35.1945    0.1313 O   0  0  0  0  0  0
   77.1425   32.9736    0.7839 O   0  0  0  0  0  0
   62.5441   26.9150    1.7743 H   0  0  0  0  0  0
   61.2868   28.3418    3.4461 H   0  0  0  0  0  0
   60.1729   28.6315    5.6162 H   0  0  0  0  0  0
   61.4973   28.6405    7.6946 H   0  0  0  0  0  0
   63.9780   28.2820    7.5840 H   0  0  0  0  0  0
   65.0713   27.9708    5.4477 H   0  0  0  0  0  0
   68.6100   30.7343    0.7679 H   0  0  0  0  0  0
   67.9064   31.6273   -0.5460 H   0  0  0  0  0  0
   67.3319   29.4210    1.7203 H   0  0  0  0  0  0
   69.0194   30.1407   -2.2102 H   0  0  0  0  0  0
   69.5397   29.0664   -0.9423 H   0  0  0  0  0  0
   71.4217   30.5122   -1.6157 H   0  0  0  0  0  0
   70.9929   30.7620    0.0508 H   0  0  0  0  0  0
   69.7943   32.8932   -0.6367 H   0  0  0  0  0  0
   70.2193   32.5664   -2.2945 H   0  0  0  0  0  0
   73.2639   31.8869    0.1180 H   0  0  0  0  0  0
   75.4495   31.9912    0.3013 H   0  0  0  0  0  0
   76.9887   32.7028    1.7032 H   0  0  0  0  0  0
  1 14  1  0  0  0
  1  5  1  0  0  0
  1  2  2  0  0  0
  2  3  1  0  0  0
  3  4  2  0  0  0
  3  6  1  0  0  0
  4  5  1  0  0  0
  4 28  1  0  0  0
  6  7  2  0  0  0
  6 11  1  0  0  0
  7  8  1  0  0  0
  7 29  1  0  0  0
  8  9  2  0  0  0
  8 30  1  0  0  0
  9 10  1  0  0  0
  9 31  1  0  0  0
 10 11  2  0  0  0
 10 32  1  0  0  0
 11 33  1  0  0  0
 12 14  1  0  0  0
 12 15  2  0  0  0
 12 13  1  0  0  0
 13 16  1  0  0  0
 13 34  1  0  0  0
 13 35  1  0  0  0
 14 36  1  0  0  0
 16 17  1  0  0  0
 16 37  1  0  0  0
 16 38  1  0  0  0
 17 18  1  0  0  0
 17 39  1  0  0  0
 17 40  1  0  0  0
 18 19  1  0  0  0
 18 41  1  0  0  0
 18 42  1  0  0  0
 19 20  1  0  0  0
 19 23  2  0  0  0
 20 21  1  0  0  0
 21 22  2  0  0  0
 22 23  1  0  0  0
 22 24  1  0  0  0
 23 43  1  0  0  0
 24 25  1  0  0  0
 24 26  2  0  0  0
 25 27  1  0  0  0
 25 44  1  0  0  0
 27 45  1  0  0  0
M  END
> <s_m_entry_id>
52285

> <s_m_entry_name>
dock_pv.7

> <s_m_Source_Path>
/home/csk/Desktop/cluster/DUD-E-result/hdac2

> <s_m_Source_File>
dock_pv.maegz

> <i_m_Source_File_Index>
7

> <chembl_id>
CHEMBL469134

> <chembl_pref_name>
None

> <i_lp_mmshare_version>
53161

> <i_f3d_flags>
0

> <r_lp_tautomer_probability>
0.999000488399163

> <s_lp_Force_Field>
OPLS_2005

> <r_lp_Energy>
18.075142

> <b_lp_Chiralities_Consistent>
1

> <s_lp_Variant>
CHEMBL1937_lig211-1

> <s_i_glide_gridfile>
glide-grid_3max

> <i_i_glide_lignum>
247

> <i_i_glide_rotatable_bonds>
11

> <r_i_docking_score>
-9.83078862004794

> <r_i_glide_ligand_efficiency>
-0.364103282223998

> <r_i_glide_ligand_efficiency_sa>
-1.09230984547197

> <r_i_glide_ligand_efficiency_ln>
-2.28844551753005

> <r_i_glide_gscore>
-9.83078862004794

> <r_i_glide_lipo>
-2.69992101315505

> <r_i_glide_hbond>
-0.246182211221915

> <r_i_glide_metal>
-2.3

> <r_i_glide_rewards>
-1.21350875436589

> <r_i_glide_evdw>
-21.3011779785156

> <r_i_glide_ecoul>
-22.8906478881836

> <r_i_glide_erotb>
1.30341623404067

> <r_i_glide_esite>
-0.175936793192428

> <r_i_glide_emodel>
-63.1914270889999

> <r_i_glide_energy>
-44.1918258666992

> <r_i_glide_einternal>
11.5401010513306

> <i_i_glide_confnum>
68

> <i_i_glide_posenum>
206

> <r_i_glide_eff_state_penalty>
0

> <s_user_duplicate_titles>
CHEMBL1937_lig211,479373

> <s_m_subgroup_title>
dock_pv

> <s_m_subgroupid>
dock_pv

> <b_m_subgroup_collapsed>
1

$$$$
CHEMBL1937_lig19
                    3D
 Schrodinger Suite 2021-1.
 40 42  0  0  1  0            999 V2000
   70.8552   33.0189   -0.9695 C   0  0  0  0  0  0
   71.9226   32.1363   -0.8197 C   0  0  0  0  0  0
   71.6308   30.7971   -0.5283 C   0  0  0  0  0  0
   70.3118   30.3595   -0.4160 C   0  0  0  0  0  0
   69.2521   31.2562   -0.5538 C   0  0  0  0  0  0
   69.5378   32.5959   -0.8206 C   0  0  0  0  0  0
   67.8180   30.7991   -0.4897 C   0  0  0  0  0  0
   67.4978   29.8281    0.3840 N   0  0  0  0  0  0
   66.9662   31.3150   -1.2160 O   0  0  0  0  0  0
   66.2213   29.2873    0.6822 C   0  0  0  0  0  0
   65.3788   28.8189   -0.3128 C   0  0  0  0  0  0
   64.2180   28.1150   -0.0158 C   0  0  0  0  0  0
   63.8806   27.8720    1.3105 C   0  0  0  0  0  0
   64.6883   28.3472    2.3428 C   0  0  0  0  0  0
   65.8622   29.0447    2.0100 C   0  0  0  0  0  0
   65.7939   28.9150   -1.6160 N   0  0  0  0  0  0
   73.2136   32.6485   -0.9792 N   0  0  0  0  0  0
   74.2181   31.9374   -1.0230 N   0  3  0  0  0  0
   75.1796   31.3586   -1.2160 N   0  5  0  0  0  0
   64.3177   28.1150    3.7608 C   0  0  0  0  0  0
   63.0189   28.4391    4.2017 C   0  0  0  0  0  0
   62.7405   28.4787    5.5666 C   0  0  0  0  0  0
   63.7319   28.1150    6.4789 C   0  0  0  0  0  0
   64.9990   27.7155    6.0533 C   0  0  0  0  0  0
   65.2957   27.7278    4.6986 C   0  0  0  0  0  0
   71.0525   34.0532   -1.2117 H   0  0  0  0  0  0
   72.4290   30.0774   -0.4160 H   0  0  0  0  0  0
   70.1214   29.3150   -0.2379 H   0  0  0  0  0  0
   68.7403   33.3150   -0.9450 H   0  0  0  0  0  0
   68.2313   29.4966    1.0064 H   0  0  0  0  0  0
   63.5964   27.7150   -0.8050 H   0  0  0  0  0  0
   63.0021   27.2920    1.5393 H   0  0  0  0  0  0
   66.5290   29.3820    2.7840 H   0  0  0  0  0  0
   65.3633   28.1112   -2.0954 H   0  0  0  0  0  0
   66.8062   28.7781   -1.6336 H   0  0  0  0  0  0
   62.2560   28.7351    3.4979 H   0  0  0  0  0  0
   61.7559   28.7519    5.9158 H   0  0  0  0  0  0
   63.5124   28.1115    7.5349 H   0  0  0  0  0  0
   65.7482   27.4202    6.7729 H   0  0  0  0  0  0
   66.2968   27.4851    4.3840 H   0  0  0  0  0  0
  1  6  1  0  0  0
  1  2  2  0  0  0
  1 26  1  0  0  0
  2 17  1  0  0  0
  2  3  1  0  0  0
  3  4  2  0  0  0
  3 27  1  0  0  0
  4  5  1  0  0  0
  4 28  1  0  0  0
  5  7  1  0  0  0
  5  6  2  0  0  0
  6 29  1  0  0  0
  7  8  1  0  0  0
  7  9  2  0  0  0
  8 10  1  0  0  0
  8 30  1  0  0  0
 10 15  1  0  0  0
 10 11  2  0  0  0
 11 16  1  0  0  0
 11 12  1  0  0  0
 12 13  2  0  0  0
 12 31  1  0  0  0
 13 14  1  0  0  0
 13 32  1  0  0  0
 14 15  2  0  0  0
 14 20  1  0  0  0
 15 33  1  0  0  0
 16 34  1  0  0  0
 16 35  1  0  0  0
 17 18  2  0  0  0
 18 19  2  0  0  0
 20 21  2  0  0  0
 20 25  1  0  0  0
 21 22  1  0  0  0
 21 36  1  0  0  0
 22 23  2  0  0  0
 22 37  1  0  0  0
 23 24  1  0  0  0
 23 38  1  0  0  0
 24 25  2  0  0  0
 24 39  1  0  0  0
 25 40  1  0  0  0
M  CHG  2  18   1  19  -1
M  END
> <s_m_entry_id>
52286

> <s_m_entry_name>
dock_pv.8

> <s_m_Source_Path>
/home/csk/Desktop/cluster/DUD-E-result/hdac2

> <s_m_Source_File>
dock_pv.maegz

> <i_m_Source_File_Index>
8

> <chembl_id>
CHEMBL2057823

> <chembl_pref_name>
None

> <i_lp_mmshare_version>
53161

> <i_f3d_flags>
0

> <r_lp_tautomer_probability>
1

> <s_lp_Force_Field>
OPLS_2005

> <r_lp_Energy>
27.056363

> <b_lp_Chiralities_Consistent>
1

> <s_lp_Variant>
CHEMBL1937_lig19-1

> <s_i_glide_gridfile>
glide-grid_3max

> <i_i_glide_lignum>
22

> <i_i_glide_rotatable_bonds>
5

> <r_i_docking_score>
-9.6571575281718

> <r_i_glide_ligand_efficiency>
-0.386286301126872

> <r_i_glide_ligand_efficiency_sa>
-1.1295079953117

> <r_i_glide_ligand_efficiency_ln>
-2.28903573583456

> <r_i_glide_gscore>
-9.6571575281718

> <r_i_glide_lipo>
-3.7020799905036

> <r_i_glide_hbond>
-0.798536940959811

> <r_i_glide_metal>
-0.640236282728391

> <r_i_glide_rewards>
-1.76342658953453

> <r_i_glide_evdw>
-2.94357895851135

> <r_i_glide_ecoul>
-21.5957794189453

> <r_i_glide_erotb>
0.866272651781736

> <r_i_glide_esite>
-0.232604515459838

> <r_i_glide_emodel>
-28.099882902949

> <r_i_glide_energy>
-24.5393583774567

> <r_i_glide_einternal>
6.72503328323364

> <i_i_glide_confnum>
100

> <i_i_glide_posenum>
74

> <r_i_glide_eff_state_penalty>
0

> <s_user_duplicate_titles>
CHEMBL1937_lig19

> <s_m_subgroup_title>
dock_pv

> <s_m_subgroupid>
dock_pv

> <b_m_subgroup_collapsed>
1

$$$$
CHEMBL1937_lig257
                    3D
 Schrodinger Suite 2021-1.
 41 43  0  0  1  0            999 V2000
   66.2282   29.2967    0.6781 C   0  0  0  0  0  0
   65.3853   28.8213   -0.3142 C   0  0  0  0  0  0
   64.2248   28.1150   -0.0160 C   0  0  0  0  0  0
   63.8951   27.8674    1.3069 C   0  0  0  0  0  0
   64.7063   28.3500    2.3326 C   0  0  0  0  0  0
   65.8716   29.0599    2.0043 C   0  0  0  0  0  0
   67.5023   29.8405    0.3840 N   0  0  0  0  0  0
   67.8180   30.8070   -0.4935 C   0  0  0  0  0  0
   69.2541   31.2587   -0.5658 C   0  0  0  0  0  0
   66.9608   31.3150   -1.2160 O   0  0  0  0  0  0
   65.8010   28.9150   -1.6160 N   0  0  0  0  0  0
   70.3060   30.3522   -0.4159 C   0  0  0  0  0  0
   71.6293   30.7756   -0.5132 C   0  0  0  0  0  0
   71.9079   32.1060   -0.8014 C   0  0  0  0  0  0
   70.8716   33.0159   -0.9785 C   0  0  0  0  0  0
   69.5497   32.5972   -0.8430 C   0  0  0  0  0  0
   64.3464   28.1150    3.7447 C   0  0  0  0  0  0
   63.0180   28.2900    4.1658 C   0  0  0  0  0  0
   62.6966   28.2925    5.5252 C   0  0  0  0  0  0
   63.7102   28.1150    6.4691 C   0  0  0  0  0  0
   65.0180   27.8625    6.0575 C   0  0  0  0  0  0
   65.3410   27.8598    4.7050 C   0  0  0  0  0  0
   61.2425   28.3274    5.9666 C   0  0  0  0  0  0
   63.6025   27.7151   -0.8046 H   0  0  0  0  0  0
   63.0179   27.2830    1.5333 H   0  0  0  0  0  0
   66.5306   29.4064    2.7839 H   0  0  0  0  0  0
   68.2380   29.5110    1.0043 H   0  0  0  0  0  0
   65.3692   28.1138   -2.0973 H   0  0  0  0  0  0
   66.8135   28.7806   -1.6347 H   0  0  0  0  0  0
   70.1035   29.3126   -0.2307 H   0  0  0  0  0  0
   72.4393   30.0699   -0.3948 H   0  0  0  0  0  0
   72.9345   32.4302   -0.8933 H   0  0  0  0  0  0
   71.0946   34.0458   -1.2158 H   0  0  0  0  0  0
   68.7537   33.3150   -0.9784 H   0  0  0  0  0  0
   62.2341   28.4562    3.4410 H   0  0  0  0  0  0
   63.4798   28.0813    7.5225 H   0  0  0  0  0  0
   65.7904   27.6714    6.7839 H   0  0  0  0  0  0
   66.3658   27.7149    4.4014 H   0  0  0  0  0  0
   61.1186   27.8968    6.9617 H   0  0  0  0  0  0
   60.8202   29.3169    5.9839 H   0  0  0  0  0  0
   60.6318   27.7279    5.2878 H   0  0  0  0  0  0
  1  6  1  0  0  0
  1  2  2  0  0  0
  1  7  1  0  0  0
  2  3  1  0  0  0
  2 11  1  0  0  0
  3  4  2  0  0  0
  3 24  1  0  0  0
  4  5  1  0  0  0
  4 25  1  0  0  0
  5  6  2  0  0  0
  5 17  1  0  0  0
  6 26  1  0  0  0
  7  8  1  0  0  0
  7 27  1  0  0  0
  8  9  1  0  0  0
  8 10  2  0  0  0
  9 12  2  0  0  0
  9 16  1  0  0  0
 11 28  1  0  0  0
 11 29  1  0  0  0
 12 13  1  0  0  0
 12 30  1  0  0  0
 13 14  2  0  0  0
 13 31  1  0  0  0
 14 15  1  0  0  0
 14 32  1  0  0  0
 15 16  2  0  0  0
 15 33  1  0  0  0
 16 34  1  0  0  0
 17 18  2  0  0  0
 17 22  1  0  0  0
 18 19  1  0  0  0
 18 35  1  0  0  0
 19 20  2  0  0  0
 19 23  1  0  0  0
 20 21  1  0  0  0
 20 36  1  0  0  0
 21 22  2  0  0  0
 21 37  1  0  0  0
 22 38  1  0  0  0
 23 39  1  0  0  0
 23 40  1  0  0  0
 23 41  1  0  0  0
M  END
> <s_m_entry_id>
52287

> <s_m_entry_name>
dock_pv.9

> <s_m_Source_Path>
/home/csk/Desktop/cluster/DUD-E-result/hdac2

> <s_m_Source_File>
dock_pv.maegz

> <i_m_Source_File_Index>
9

> <chembl_id>
CHEMBL1094108

> <chembl_pref_name>
None

> <i_lp_mmshare_version>
53161

> <i_f3d_flags>
0

> <r_lp_tautomer_probability>
1

> <s_lp_Force_Field>
OPLS_2005

> <r_lp_Energy>
26.878669

> <b_lp_Chiralities_Consistent>
1

> <s_lp_Variant>
CHEMBL1937_lig257-1

> <s_i_glide_gridfile>
glide-grid_3max

> <i_i_glide_lignum>
295

> <i_i_glide_rotatable_bonds>
4

> <r_i_docking_score>
-9.59220445670841

> <r_i_glide_ligand_efficiency>
-0.417052367682974

> <r_i_glide_ligand_efficiency_sa>
-1.18604145608292

> <r_i_glide_ligand_efficiency_ln>
-2.31948201493331

> <r_i_glide_gscore>
-9.59220445670841

> <r_i_glide_lipo>
-3.83232298007183

> <r_i_glide_hbond>
-0.797047650838355

> <r_i_glide_metal>
-0.662006272853088

> <r_i_glide_rewards>
-1.88190719925249

> <r_i_glide_evdw>
2.33192944526672

> <r_i_glide_ecoul>
-20.8101596832275

> <r_i_glide_erotb>
0.805494328942217

> <r_i_glide_esite>
-0.219487202414068

> <r_i_glide_emodel>
-18.377379515278

> <r_i_glide_energy>
-18.4782302379608

> <r_i_glide_einternal>
6.27231979370117

> <i_i_glide_confnum>
4

> <i_i_glide_posenum>
333

> <r_i_glide_eff_state_penalty>
0

> <s_user_duplicate_titles>
CHEMBL1937_lig257

> <s_m_subgroup_title>
dock_pv

> <s_m_subgroupid>
dock_pv

> <b_m_subgroup_collapsed>
1

$$$$
CHEMBL1937_lig205
                    3D
 Schrodinger Suite 2021-1.
 47 48  0  0  1  0            999 V2000
   64.5660   28.2360    2.5466 C   0  0  0  0  0  0
   63.8180   27.7631    1.5197 O   0  0  0  0  0  0
   64.4469   28.1150    0.3256 N   0  0  0  0  0  0
   65.5329   28.7898    0.6472 C   0  0  0  0  0  0
   65.6663   28.8683    2.0376 C   0  0  0  0  0  0
   64.0537   28.1150    3.9215 C   0  0  0  0  0  0
   64.9152   27.9825    5.0313 C   0  0  0  0  0  0
   64.3833   28.1150    6.3202 C   0  0  0  0  0  0
   63.0180   28.3492    6.4973 C   0  0  0  0  0  0
   62.1706   28.4510    5.3970 C   0  0  0  0  0  0
   62.6858   28.3352    4.1117 C   0  0  0  0  0  0
   66.4227   29.3860   -0.3151 C   0  0  0  0  0  0
   67.4467   30.0639    0.2231 N   0  0  0  0  0  0
   68.4539   30.8682   -0.4420 C   0  0  0  0  0  0
   69.6335   30.0368   -0.9758 C   0  0  0  0  0  0
   70.9793   30.7811   -0.8994 C   0  0  0  0  0  0
   71.0073   32.0789   -1.7241 C   0  0  0  0  0  0
   72.3941   32.7501   -1.7467 C   0  0  0  0  0  0
   66.2180   29.3150   -1.5228 O   0  0  0  0  0  0
   72.3831   34.2563   -2.1037 C   0  0  0  0  0  0
   71.8350   34.6478   -3.4868 C   0  0  0  0  0  0
   71.8575   35.9681   -3.7419 N   0  0  0  0  0  0
   71.4180   33.7960   -4.2772 O   0  0  0  0  0  0
   71.4180   36.4217   -4.9918 O   0  0  0  0  0  0
   60.7918   28.5150    5.5778 N   0  0  0  0  0  0
   66.4426   29.3518    2.6086 H   0  0  0  0  0  0
   65.9752   27.8243    4.8941 H   0  0  0  0  0  0
   65.0180   28.0107    7.1840 H   0  0  0  0  0  0
   62.5998   28.3810    7.4900 H   0  0  0  0  0  0
   62.0275   28.4226    3.2592 H   0  0  0  0  0  0
   67.6808   29.8262    1.1783 H   0  0  0  0  0  0
   68.8116   31.5497    0.3320 H   0  0  0  0  0  0
   68.0219   31.5011   -1.2160 H   0  0  0  0  0  0
   69.4182   29.7263   -1.9997 H   0  0  0  0  0  0
   69.7251   29.1063   -0.4160 H   0  0  0  0  0  0
   71.7815   30.1150   -1.2160 H   0  0  0  0  0  0
   71.2015   31.0121    0.1442 H   0  0  0  0  0  0
   70.2754   32.7782   -1.3180 H   0  0  0  0  0  0
   70.6892   31.8600   -2.7435 H   0  0  0  0  0  0
   73.0576   32.2047   -2.4197 H   0  0  0  0  0  0
   72.8497   32.6536   -0.7592 H   0  0  0  0  0  0
   73.4067   34.6286   -2.0396 H   0  0  0  0  0  0
   71.8181   34.7972   -1.3434 H   0  0  0  0  0  0
   72.1742   36.7126   -3.1371 H   0  0  0  0  0  0
   70.5528   36.8254   -4.8160 H   0  0  0  0  0  0
   60.4593   28.0446    6.4131 H   0  0  0  0  0  0
   60.2577   28.3057    4.7450 H   0  0  0  0  0  0
  1  5  2  0  0  0
  1  6  1  0  0  0
  1  2  1  0  0  0
  2  3  1  0  0  0
  3  4  2  0  0  0
  4 12  1  0  0  0
  4  5  1  0  0  0
  5 26  1  0  0  0
  6  7  2  0  0  0
  6 11  1  0  0  0
  7  8  1  0  0  0
  7 27  1  0  0  0
  8  9  2  0  0  0
  8 28  1  0  0  0
  9 10  1  0  0  0
  9 29  1  0  0  0
 10 11  2  0  0  0
 10 25  1  0  0  0
 11 30  1  0  0  0
 12 13  1  0  0  0
 12 19  2  0  0  0
 13 14  1  0  0  0
 13 31  1  0  0  0
 14 15  1  0  0  0
 14 32  1  0  0  0
 14 33  1  0  0  0
 15 16  1  0  0  0
 15 34  1  0  0  0
 15 35  1  0  0  0
 16 17  1  0  0  0
 16 36  1  0  0  0
 16 37  1  0  0  0
 17 18  1  0  0  0
 17 38  1  0  0  0
 17 39  1  0  0  0
 18 20  1  0  0  0
 18 40  1  0  0  0
 18 41  1  0  0  0
 20 21  1  0  0  0
 20 42  1  0  0  0
 20 43  1  0  0  0
 21 22  1  0  0  0
 21 23  2  0  0  0
 22 24  1  0  0  0
 22 44  1  0  0  0
 24 45  1  0  0  0
 25 46  1  0  0  0
 25 47  1  0  0  0
M  END
> <s_m_entry_id>
52288

> <s_m_entry_name>
dock_pv.10

> <s_m_Source_Path>
/home/csk/Desktop/cluster/DUD-E-result/hdac2

> <s_m_Source_File>
dock_pv.maegz

> <i_m_Source_File_Index>
10

> <chembl_id>
CHEMBL468595

> <chembl_pref_name>
None

> <i_lp_mmshare_version>
53161

> <i_f3d_flags>
0

> <r_lp_tautomer_probability>
1

> <s_lp_Force_Field>
OPLS_2005

> <r_lp_Energy>
13.013934

> <b_lp_Chiralities_Consistent>
1

> <s_lp_Variant>
CHEMBL1937_lig205-1

> <s_i_glide_gridfile>
glide-grid_3max

> <i_i_glide_lignum>
239

> <i_i_glide_rotatable_bonds>
12

> <r_i_docking_score>
-9.5877581679583

> <r_i_glide_ligand_efficiency>
-0.383510326718332

> <r_i_glide_ligand_efficiency_sa>
-1.12139099690901

> <r_i_glide_ligand_efficiency_ln>
-2.27258600773295

> <r_i_glide_gscore>
-9.5877581679583

> <r_i_glide_lipo>
-3.28676772768287

> <r_i_glide_hbond>
-0.66072019348323

> <r_i_glide_metal>
-2.3

> <r_i_glide_rewards>
-1.38289308612686

> <r_i_glide_evdw>
-17.9172058105469

> <r_i_glide_ecoul>
-16.896053314209

> <r_i_glide_erotb>
1.74300668023679

> <r_i_glide_esite>
-0.27011555324344

> <r_i_glide_emodel>
-47.1166882290767

> <r_i_glide_energy>
-34.8132591247559

> <r_i_glide_einternal>
12.4461374282837

> <i_i_glide_confnum>
65

> <i_i_glide_posenum>
321

> <r_i_glide_eff_state_penalty>
0

> <s_user_duplicate_titles>
CHEMBL1937_lig205

> <s_m_subgroup_title>
dock_pv

> <s_m_subgroupid>
dock_pv

> <b_m_subgroup_collapsed>
1

$$$$
CHEMBL1937_lig144
                    3D
 Schrodinger Suite 2021-1.
 38 40  0  0  1  0            999 V2000
   65.7877   28.9150   -1.6160 N   0  0  0  0  0  0
   65.3765   28.8177   -0.3116 C   0  0  0  0  0  0
   64.2179   28.1150   -0.0119 C   0  0  0  0  0  0
   63.8792   27.8720    1.3140 C   0  0  0  0  0  0
   64.6868   28.3468    2.3461 C   0  0  0  0  0  0
   65.8609   29.0430    2.0120 C   0  0  0  0  0  0
   66.2180   29.2842    0.6837 C   0  0  0  0  0  0
   67.4908   29.8206    0.3840 N   0  0  0  0  0  0
   67.8180   30.7848   -0.4931 C   0  0  0  0  0  0
   66.9730   31.3150   -1.2160 O   0  0  0  0  0  0
   69.2636   31.1985   -0.5595 C   0  0  0  0  0  0
   69.5987   32.5322   -0.8160 C   0  0  0  0  0  0
   70.9343   32.9150   -0.9134 C   0  0  0  0  0  0
   71.9408   31.9711   -0.7404 C   0  0  0  0  0  0
   71.6204   30.6420   -0.4916 C   0  0  0  0  0  0
   70.2846   30.2560   -0.4160 C   0  0  0  0  0  0
   64.3171   28.1150    3.7641 C   0  0  0  0  0  0
   63.0183   28.4380    4.2061 C   0  0  0  0  0  0
   62.7412   28.4772    5.5712 C   0  0  0  0  0  0
   63.7340   28.1150    6.4826 C   0  0  0  0  0  0
   65.0016   27.7189    6.0560 C   0  0  0  0  0  0
   65.2965   27.7289    4.7008 C   0  0  0  0  0  0
   65.3566   28.1111   -2.0947 H   0  0  0  0  0  0
   66.8001   28.7789   -1.6356 H   0  0  0  0  0  0
   63.5954   27.7150   -0.8004 H   0  0  0  0  0  0
   63.0001   27.2926    1.5426 H   0  0  0  0  0  0
   66.5299   29.3803    2.7840 H   0  0  0  0  0  0
   68.2256   29.4856    1.0032 H   0  0  0  0  0  0
   68.8276   33.2786   -0.9461 H   0  0  0  0  0  0
   71.1926   33.9427   -1.1215 H   0  0  0  0  0  0
   72.9777   32.2671   -0.8107 H   0  0  0  0  0  0
   72.4090   29.9093   -0.3948 H   0  0  0  0  0  0
   70.0457   29.2152   -0.2762 H   0  0  0  0  0  0
   62.2544   28.7332    3.5029 H   0  0  0  0  0  0
   61.7565   28.7490    5.9214 H   0  0  0  0  0  0
   63.5157   28.1119    7.5389 H   0  0  0  0  0  0
   65.7523   27.4256    6.7748 H   0  0  0  0  0  0
   66.2971   27.4869    4.3840 H   0  0  0  0  0  0
  1  2  1  0  0  0
  1 23  1  0  0  0
  1 24  1  0  0  0
  2  3  2  0  0  0
  2  7  1  0  0  0
  3  4  1  0  0  0
  3 25  1  0  0  0
  4  5  2  0  0  0
  4 26  1  0  0  0
  5 17  1  0  0  0
  5  6  1  0  0  0
  6  7  2  0  0  0
  6 27  1  0  0  0
  7  8  1  0  0  0
  8  9  1  0  0  0
  8 28  1  0  0  0
  9 10  2  0  0  0
  9 11  1  0  0  0
 11 16  2  0  0  0
 11 12  1  0  0  0
 12 13  2  0  0  0
 12 29  1  0  0  0
 13 14  1  0  0  0
 13 30  1  0  0  0
 14 15  2  0  0  0
 14 31  1  0  0  0
 15 16  1  0  0  0
 15 32  1  0  0  0
 16 33  1  0  0  0
 17 22  2  0  0  0
 17 18  1  0  0  0
 18 19  2  0  0  0
 18 34  1  0  0  0
 19 20  1  0  0  0
 19 35  1  0  0  0
 20 21  2  0  0  0
 20 36  1  0  0  0
 21 22  1  0  0  0
 21 37  1  0  0  0
 22 38  1  0  0  0
M  END
> <s_m_entry_id>
52289

> <s_m_entry_name>
dock_pv.11

> <s_m_Source_Path>
/home/csk/Desktop/cluster/DUD-E-result/hdac2

> <s_m_Source_File>
dock_pv.maegz

> <i_m_Source_File_Index>
11

> <chembl_id>
CHEMBL271741

> <chembl_pref_name>
None

> <i_lp_mmshare_version>
53161

> <i_f3d_flags>
0

> <r_lp_tautomer_probability>
1

> <s_lp_Force_Field>
OPLS_2005

> <r_lp_Energy>
26.72446

> <b_lp_Chiralities_Consistent>
1

> <s_lp_Variant>
CHEMBL1937_lig144-1

> <s_i_glide_gridfile>
glide-grid_3max

> <i_i_glide_lignum>
169

> <i_i_glide_rotatable_bonds>
4

> <r_i_docking_score>
-9.53616629432255

> <r_i_glide_ligand_efficiency>
-0.433462104287389

> <r_i_glide_ligand_efficiency_sa>
-1.21457786331047

> <r_i_glide_ligand_efficiency_ln>
-2.33098688244957

> <r_i_glide_gscore>
-9.53616629432255

> <r_i_glide_lipo>
-3.65751756792495

> <r_i_glide_hbond>
-0.799211417780887

> <r_i_glide_metal>
-0.612841692311691

> <r_i_glide_rewards>
-2.00976432779156

> <r_i_glide_evdw>
1.76309978961945

> <r_i_glide_ecoul>
-21.3457870483398

> <r_i_glide_erotb>
0.875186911910122

> <r_i_glide_esite>
-0.218305132653575

> <r_i_glide_emodel>
-20.9288639879145

> <r_i_glide_energy>
-19.5826872587204

> <r_i_glide_einternal>
7.0875129699707

> <i_i_glide_confnum>
17

> <i_i_glide_posenum>
369

> <r_i_glide_eff_state_penalty>
0

> <s_user_duplicate_titles>
CHEMBL1937_lig144,435638

> <s_m_subgroup_title>
dock_pv

> <s_m_subgroupid>
dock_pv

> <b_m_subgroup_collapsed>
1

$$$$
CHEMBL1937_lig212
                    3D
 Schrodinger Suite 2021-1.
 47 49  0  0  1  0            999 V2000
   65.4499   28.7053    1.4380 C   0  0  0  0  0  0
   65.1022   28.7122    2.7074 N   0  0  0  0  0  0
   63.9386   28.1150    2.9306 C   0  0  0  0  0  0
   63.4181   27.5177    1.8010 C   0  0  0  0  0  0
   64.3686   27.8404    0.3973 S   0  0  0  0  0  0
   63.2484   28.1425    4.2644 C   0  0  0  0  0  0
   61.8581   28.3108    4.3263 C   0  0  0  0  0  0
   61.2140   28.5151    5.5495 C   0  0  0  0  0  0
   61.9498   28.5150    6.7327 C   0  0  0  0  0  0
   63.3260   28.2955    6.6891 C   0  0  0  0  0  0
   63.9657   28.1150    5.4693 C   0  0  0  0  0  0
   66.9173   29.8116   -0.2078 C   0  0  0  0  0  0
   68.1121   30.7726   -0.2187 C   0  0  0  0  0  0
   66.6180   29.3149    1.0097 N   0  0  0  0  0  0
   66.2180   29.7150   -1.2160 O   0  0  0  0  0  0
   69.4906   30.1750   -0.5585 C   0  0  0  0  0  0
   70.5822   30.7406    0.3814 C   0  0  0  0  0  0
   71.9795   30.8873   -0.2403 C   0  0  0  0  0  0
   72.0564   32.1296   -1.0975 C   0  0  0  0  0  0
   72.5743   33.2463   -0.5306 O   0  0  0  0  0  0
   72.5359   34.2836   -1.4644 N   0  0  0  0  0  0
   71.9722   33.7967   -2.5564 C   0  0  0  0  0  0
   71.6391   32.4512   -2.3652 C   0  0  0  0  0  0
   71.7628   34.5143   -3.7959 C   0  0  0  0  0  0
   71.9650   35.8465   -3.7308 N   0  0  0  0  0  0
   71.4180   33.9108   -4.8159 O   0  0  0  0  0  0
   71.8178   36.6073   -4.9013 O   0  0  0  0  0  0
   59.8744   28.9150    5.5840 N   0  0  0  0  0  0
   62.5401   26.9151    1.7514 H   0  0  0  0  0  0
   61.2830   28.3616    3.4147 H   0  0  0  0  0  0
   61.4588   28.6927    7.6784 H   0  0  0  0  0  0
   63.9222   28.2829    7.5841 H   0  0  0  0  0  0
   65.0381   27.9802    5.4550 H   0  0  0  0  0  0
   68.1583   31.2345    0.7695 H   0  0  0  0  0  0
   67.8969   31.6139   -0.8778 H   0  0  0  0  0  0
   67.3269   29.4372    1.7217 H   0  0  0  0  0  0
   69.7189   30.3931   -1.6025 H   0  0  0  0  0  0
   69.4857   29.0855   -0.4896 H   0  0  0  0  0  0
   70.6181   30.1233    1.2710 H   0  0  0  0  0  0
   70.2932   31.7163    0.7658 H   0  0  0  0  0  0
   72.2286   29.9960   -0.8161 H   0  0  0  0  0  0
   72.7310   30.9356    0.5503 H   0  0  0  0  0  0
   71.1544   31.7896   -3.0663 H   0  0  0  0  0  0
   72.2225   36.3972   -2.9232 H   0  0  0  0  0  0
   70.9405   37.0052   -4.8174 H   0  0  0  0  0  0
   59.4299   28.6987    6.4652 H   0  0  0  0  0  0
   59.3442   28.6576    4.7623 H   0  0  0  0  0  0
  1 14  1  0  0  0
  1  5  1  0  0  0
  1  2  2  0  0  0
  2  3  1  0  0  0
  3  4  2  0  0  0
  3  6  1  0  0  0
  4  5  1  0  0  0
  4 29  1  0  0  0
  6 11  1  0  0  0
  6  7  2  0  0  0
  7  8  1  0  0  0
  7 30  1  0  0  0
  8  9  2  0  0  0
  8 28  1  0  0  0
  9 10  1  0  0  0
  9 31  1  0  0  0
 10 11  2  0  0  0
 10 32  1  0  0  0
 11 33  1  0  0  0
 12 14  1  0  0  0
 12 15  2  0  0  0
 12 13  1  0  0  0
 13 16  1  0  0  0
 13 34  1  0  0  0
 13 35  1  0  0  0
 14 36  1  0  0  0
 16 17  1  0  0  0
 16 37  1  0  0  0
 16 38  1  0  0  0
 17 18  1  0  0  0
 17 39  1  0  0  0
 17 40  1  0  0  0
 18 19  1  0  0  0
 18 41  1  0  0  0
 18 42  1  0  0  0
 19 20  1  0  0  0
 19 23  2  0  0  0
 20 21  1  0  0  0
 21 22  2  0  0  0
 22 23  1  0  0  0
 22 24  1  0  0  0
 23 43  1  0  0  0
 24 25  1  0  0  0
 24 26  2  0  0  0
 25 27  1  0  0  0
 25 44  1  0  0  0
 27 45  1  0  0  0
 28 46  1  0  0  0
 28 47  1  0  0  0
M  END
> <s_m_entry_id>
52290

> <s_m_entry_name>
dock_pv.12

> <s_m_Source_Path>
/home/csk/Desktop/cluster/DUD-E-result/hdac2

> <s_m_Source_File>
dock_pv.maegz

> <i_m_Source_File_Index>
12

> <chembl_id>
CHEMBL511432

> <chembl_pref_name>
None

> <i_lp_mmshare_version>
53161

> <i_f3d_flags>
0

> <r_lp_tautomer_probability>
0.999000488399163

> <s_lp_Force_Field>
OPLS_2005

> <r_lp_Energy>
21.409091

> <b_lp_Chiralities_Consistent>
1

> <s_lp_Variant>
CHEMBL1937_lig212-1

> <s_i_glide_gridfile>
glide-grid_3max

> <i_i_glide_lignum>
248

> <i_i_glide_rotatable_bonds>
11

> <r_i_docking_score>
-9.36637629707318

> <r_i_glide_ligand_efficiency>
-0.334513439181185

> <r_i_glide_ligand_efficiency_sa>
-1.01577981923352

> <r_i_glide_ligand_efficiency_ln>
-2.16203465812245

> <r_i_glide_gscore>
-9.36637629707318

> <r_i_glide_lipo>
-2.83329249317382

> <r_i_glide_hbond>
-0.465595052729217

> <r_i_glide_metal>
-2.3

> <r_i_glide_rewards>
-1.12547303104886

> <r_i_glide_evdw>
-23.9988231658936

> <r_i_glide_ecoul>
-15.8474273681641

> <r_i_glide_erotb>
1.21709751235064

> <r_i_glide_esite>
-0.282057968952642

> <r_i_glide_emodel>
-52.5210712708507

> <r_i_glide_energy>
-39.8462505340576

> <r_i_glide_einternal>
14.2947101593018

> <i_i_glide_confnum>
67

> <i_i_glide_posenum>
341

> <r_i_glide_eff_state_penalty>
0

> <s_user_duplicate_titles>
CHEMBL1937_lig212,479374

> <s_m_subgroup_title>
dock_pv

> <s_m_subgroupid>
dock_pv

> <b_m_subgroup_collapsed>
1

$$$$
CHEMBL1937_lig252
                    3D
 Schrodinger Suite 2021-1.
 38 40  0  0  1  0            999 V2000
   66.2302   29.2827    0.6791 C   0  0  0  0  0  0
   65.3837   28.8180   -0.3140 C   0  0  0  0  0  0
   64.2221   28.1148   -0.0160 C   0  0  0  0  0  0
   63.9007   27.8460    1.3015 C   0  0  0  0  0  0
   64.7136   28.3225    2.3262 C   0  0  0  0  0  0
   65.8799   29.0317    2.0052 C   0  0  0  0  0  0
   67.5005   29.8330    0.3840 N   0  0  0  0  0  0
   67.8180   30.8038   -0.4895 C   0  0  0  0  0  0
   69.2548   31.2567   -0.5473 C   0  0  0  0  0  0
   66.9653   31.3150   -1.2160 O   0  0  0  0  0  0
   65.7972   28.9150   -1.6160 N   0  0  0  0  0  0
   69.5549   32.5912   -0.8430 C   0  0  0  0  0  0
   70.8791   33.0081   -0.9594 C   0  0  0  0  0  0
   71.9122   32.1039   -0.7409 C   0  0  0  0  0  0
   71.6296   30.7790   -0.4325 C   0  0  0  0  0  0
   70.3050   30.3542   -0.3592 C   0  0  0  0  0  0
   64.3127   28.1150    3.7257 C   0  0  0  0  0  0
   63.0179   28.5117    4.0903 C   0  0  0  0  0  0
   62.6289   28.5149    5.4210 C   0  0  0  0  0  0
   63.5321   28.0648    6.3754 C   0  0  0  0  0  0
   64.8428   27.7151    6.0423 C   0  0  0  0  0  0
   65.2352   27.7254    4.7110 C   0  0  0  0  0  0
   63.0657   27.7150    7.5840 F   0  0  0  0  0  0
   63.5961   27.7221   -0.8054 H   0  0  0  0  0  0
   63.0180   27.2691    1.5273 H   0  0  0  0  0  0
   66.5406   29.3718    2.7840 H   0  0  0  0  0  0
   68.2362   29.5055    1.0056 H   0  0  0  0  0  0
   65.3653   28.1144   -2.0983 H   0  0  0  0  0  0
   66.8096   28.7811   -1.6361 H   0  0  0  0  0  0
   68.7646   33.3107   -1.0060 H   0  0  0  0  0  0
   71.1062   34.0334   -1.2125 H   0  0  0  0  0  0
   72.9403   32.4277   -0.8159 H   0  0  0  0  0  0
   72.4398   30.0803   -0.2814 H   0  0  0  0  0  0
   70.1021   29.3150   -0.1593 H   0  0  0  0  0  0
   62.3113   28.8334    3.3412 H   0  0  0  0  0  0
   61.6101   28.7398    5.6979 H   0  0  0  0  0  0
   65.5153   27.3477    6.8025 H   0  0  0  0  0  0
   66.2420   27.4505    4.4457 H   0  0  0  0  0  0
  1  6  1  0  0  0
  1  2  2  0  0  0
  1  7  1  0  0  0
  2  3  1  0  0  0
  2 11  1  0  0  0
  3  4  2  0  0  0
  3 24  1  0  0  0
  4  5  1  0  0  0
  4 25  1  0  0  0
  5  6  2  0  0  0
  5 17  1  0  0  0
  6 26  1  0  0  0
  7  8  1  0  0  0
  7 27  1  0  0  0
  8  9  1  0  0  0
  8 10  2  0  0  0
  9 12  2  0  0  0
  9 16  1  0  0  0
 11 28  1  0  0  0
 11 29  1  0  0  0
 12 13  1  0  0  0
 12 30  1  0  0  0
 13 14  2  0  0  0
 13 31  1  0  0  0
 14 15  1  0  0  0
 14 32  1  0  0  0
 15 16  2  0  0  0
 15 33  1  0  0  0
 16 34  1  0  0  0
 17 18  2  0  0  0
 17 22  1  0  0  0
 18 19  1  0  0  0
 18 35  1  0  0  0
 19 20  2  0  0  0
 19 36  1  0  0  0
 20 21  1  0  0  0
 20 23  1  0  0  0
 21 22  2  0  0  0
 21 37  1  0  0  0
 22 38  1  0  0  0
M  END
> <s_m_entry_id>
52291

> <s_m_entry_name>
dock_pv.13

> <s_m_Source_Path>
/home/csk/Desktop/cluster/DUD-E-result/hdac2

> <s_m_Source_File>
dock_pv.maegz

> <i_m_Source_File_Index>
13

> <chembl_id>
CHEMBL1098337

> <chembl_pref_name>
None

> <i_lp_mmshare_version>
53161

> <i_f3d_flags>
0

> <r_lp_tautomer_probability>
1

> <s_lp_Force_Field>
OPLS_2005

> <r_lp_Energy>
25.567869

> <b_lp_Chiralities_Consistent>
1

> <s_lp_Variant>
CHEMBL1937_lig252-1

> <s_i_glide_gridfile>
glide-grid_3max

> <i_i_glide_lignum>
290

> <i_i_glide_rotatable_bonds>
4

> <r_i_docking_score>
-9.22931631466827

> <r_i_glide_ligand_efficiency>
-0.401274622376881

> <r_i_glide_ligand_efficiency_sa>
-1.14117164723731

> <r_i_glide_ligand_efficiency_ln>
-2.23173237170026

> <r_i_glide_gscore>
-9.22931631466827

> <r_i_glide_lipo>
-3.72935640104828

> <r_i_glide_hbond>
-0.797516319394706

> <r_i_glide_metal>
-0.643930947921424

> <r_i_glide_rewards>
-1.79541072954861

> <r_i_glide_evdw>
5.48870325088501

> <r_i_glide_ecoul>
-20.6811447143555

> <r_i_glide_erotb>
0.787315311544233

> <r_i_glide_esite>
-0.222680683690417

> <r_i_glide_emodel>
-14.6944968020916

> <r_i_glide_energy>
-15.1924414634705

> <r_i_glide_einternal>
5.86253547668457

> <i_i_glide_confnum>
32

> <i_i_glide_posenum>
147

> <r_i_glide_eff_state_penalty>
0

> <s_user_duplicate_titles>
CHEMBL1937_lig252,626352

> <s_m_subgroup_title>
dock_pv

> <s_m_subgroupid>
dock_pv

> <b_m_subgroup_collapsed>
1

$$$$
CHEMBL1937_lig204
                    3D
 Schrodinger Suite 2021-1.
 41 42  0  0  1  0            999 V2000
   64.6536   28.3426    2.4450 C   0  0  0  0  0  0
   63.8199   27.9560    1.4538 O   0  0  0  0  0  0
   64.4456   28.2691    0.2488 N   0  0  0  0  0  0
   65.6012   28.8378    0.5443 C   0  0  0  0  0  0
   65.7759   28.9150    1.9162 C   0  0  0  0  0  0
   64.2782   28.1150    3.8355 C   0  0  0  0  0  0
   65.2813   27.7150    4.7351 C   0  0  0  0  0  0
   65.0179   27.7152    6.0940 C   0  0  0  0  0  0
   63.7580   28.1150    6.5419 C   0  0  0  0  0  0
   62.7423   28.4739    5.6579 C   0  0  0  0  0  0
   62.9976   28.4584    4.2874 C   0  0  0  0  0  0
   66.5242   29.3150   -0.4377 C   0  0  0  0  0  0
   68.8365   30.1907   -0.8415 C   0  0  0  0  0  0
   69.2368   31.6273   -0.4679 C   0  0  0  0  0  0
   70.5424   32.1175   -1.1207 C   0  0  0  0  0  0
   71.8223   31.4471   -0.5571 C   0  0  0  0  0  0
   73.1316   32.0642   -1.0746 C   0  0  0  0  0  0
   74.2525   31.7150   -0.4160 N   0  0  0  0  0  0
   73.1158   32.8205   -2.0499 O   0  0  0  0  0  0
   75.4740   32.2592   -0.8440 O   0  0  0  0  0  0
   61.4731   28.7723    6.1516 N   0  0  0  0  0  0
   66.2180   29.3150   -1.6160 O   0  0  0  0  0  0
   67.7314   29.7151   -0.0160 N   0  0  0  0  0  0
   66.6180   29.3150    2.4584 H   0  0  0  0  0  0
   66.2692   27.4644    4.3842 H   0  0  0  0  0  0
   65.7830   27.4112    6.7911 H   0  0  0  0  0  0
   63.5538   28.0913    7.5840 H   0  0  0  0  0  0
   62.2330   28.7550    3.5840 H   0  0  0  0  0  0
   68.6441   30.1150   -1.9139 H   0  0  0  0  0  0
   69.6751   29.5127   -0.6787 H   0  0  0  0  0  0
   69.3276   31.7122    0.6153 H   0  0  0  0  0  0
   68.4245   32.2997   -0.7484 H   0  0  0  0  0  0
   70.6072   33.1969   -0.9674 H   0  0  0  0  0  0
   70.4882   31.9695   -2.2009 H   0  0  0  0  0  0
   71.8368   30.3880   -0.8160 H   0  0  0  0  0  0
   71.8214   31.5115    0.5323 H   0  0  0  0  0  0
   74.3625   31.1164    0.4026 H   0  0  0  0  0  0
   75.7449   32.8135   -0.1060 H   0  0  0  0  0  0
   61.3245   28.5150    7.1176 H   0  0  0  0  0  0
   60.7229   28.5150    5.5233 H   0  0  0  0  0  0
   68.0084   29.4221    0.9174 H   0  0  0  0  0  0
  1  6  1  0  0  0
  1  2  1  0  0  0
  1  5  2  0  0  0
  2  3  1  0  0  0
  3  4  2  0  0  0
  4 12  1  0  0  0
  4  5  1  0  0  0
  5 24  1  0  0  0
  6 11  1  0  0  0
  6  7  2  0  0  0
  7  8  1  0  0  0
  7 25  1  0  0  0
  8  9  2  0  0  0
  8 26  1  0  0  0
  9 10  1  0  0  0
  9 27  1  0  0  0
 10 11  2  0  0  0
 10 21  1  0  0  0
 11 28  1  0  0  0
 12 23  1  0  0  0
 12 22  2  0  0  0
 13 23  1  0  0  0
 13 14  1  0  0  0
 13 29  1  0  0  0
 13 30  1  0  0  0
 14 15  1  0  0  0
 14 31  1  0  0  0
 14 32  1  0  0  0
 15 16  1  0  0  0
 15 33  1  0  0  0
 15 34  1  0  0  0
 16 17  1  0  0  0
 16 35  1  0  0  0
 16 36  1  0  0  0
 17 18  1  0  0  0
 17 19  2  0  0  0
 18 20  1  0  0  0
 18 37  1  0  0  0
 20 38  1  0  0  0
 21 39  1  0  0  0
 21 40  1  0  0  0
 23 41  1  0  0  0
M  END
> <s_m_entry_id>
52292

> <s_m_entry_name>
dock_pv.14

> <s_m_Source_Path>
/home/csk/Desktop/cluster/DUD-E-result/hdac2

> <s_m_Source_File>
dock_pv.maegz

> <i_m_Source_File_Index>
14

> <chembl_id>
CHEMBL446512

> <chembl_pref_name>
None

> <i_lp_mmshare_version>
53161

> <i_f3d_flags>
0

> <r_lp_tautomer_probability>
1

> <s_lp_Force_Field>
OPLS_2005

> <r_lp_Energy>
14.034025

> <b_lp_Chiralities_Consistent>
1

> <s_lp_Variant>
CHEMBL1937_lig204-1

> <s_i_glide_gridfile>
glide-grid_3max

> <i_i_glide_lignum>
238

> <i_i_glide_rotatable_bonds>
10

> <r_i_docking_score>
-9.2199006714025

> <r_i_glide_ligand_efficiency>
-0.400865246582717

> <r_i_glide_ligand_efficiency_sa>
-1.14000743693515

> <r_i_glide_ligand_efficiency_ln>
-2.22945558378226

> <r_i_glide_gscore>
-9.2199006714025

> <r_i_glide_lipo>
-3.08846476331729

> <r_i_glide_hbond>
-0.456

> <r_i_glide_metal>
-2.3

> <r_i_glide_rewards>
-1.58167227435962

> <r_i_glide_evdw>
-17.565408706665

> <r_i_glide_ecoul>
-15.4260654449463

> <r_i_glide_erotb>
1.65583573640351

> <r_i_glide_esite>
-0.257419118053909

> <r_i_glide_emodel>
-45.9421043226468

> <r_i_glide_energy>
-32.9914741516113

> <r_i_glide_einternal>
9.16172790527344

> <i_i_glide_confnum>
152

> <i_i_glide_posenum>
340

> <r_i_glide_eff_state_penalty>
0

> <s_user_duplicate_titles>
CHEMBL1937_lig204

> <s_m_subgroup_title>
dock_pv

> <s_m_subgroupid>
dock_pv

> <b_m_subgroup_collapsed>
1

$$$$
CHEMBL1937_lig261
                    3D
 Schrodinger Suite 2021-1.
 37 39  0  0  1  0            999 V2000
   66.2180   29.2863    0.6832 C   0  0  0  0  0  0
   65.3777   28.8179   -0.3127 C   0  0  0  0  0  0
   64.2180   28.1150   -0.0159 C   0  0  0  0  0  0
   63.8791   27.8671    1.3091 C   0  0  0  0  0  0
   64.6808   28.3490    2.3418 C   0  0  0  0  0  0
   65.8528   29.0515    2.0108 C   0  0  0  0  0  0
   67.4911   29.8219    0.3840 N   0  0  0  0  0  0
   67.8180   30.7860   -0.4929 C   0  0  0  0  0  0
   69.2636   31.1994   -0.5594 C   0  0  0  0  0  0
   66.9727   31.3150   -1.2160 O   0  0  0  0  0  0
   65.7912   28.9150   -1.6160 N   0  0  0  0  0  0
   70.2843   30.2565   -0.4160 C   0  0  0  0  0  0
   71.6203   30.6418   -0.4924 C   0  0  0  0  0  0
   71.9411   31.9707   -0.7417 C   0  0  0  0  0  0
   70.9350   32.9150   -0.9142 C   0  0  0  0  0  0
   69.5992   32.5329   -0.8160 C   0  0  0  0  0  0
   64.3098   28.1150    3.7582 C   0  0  0  0  0  0
   63.0189   28.4480    4.2210 C   0  0  0  0  0  0
   62.7887   28.4656    5.5996 C   0  0  0  0  0  0
   63.7363   28.1150    6.5084 N   0  0  0  0  0  0
   64.9561   27.7272    6.0501 C   0  0  0  0  0  0
   65.2817   27.7151    4.6978 C   0  0  0  0  0  0
   63.5976   27.7150   -0.8061 H   0  0  0  0  0  0
   63.0023   27.2839    1.5365 H   0  0  0  0  0  0
   66.5179   29.3928    2.7840 H   0  0  0  0  0  0
   68.2259   29.4871    1.0033 H   0  0  0  0  0  0
   65.3618   28.1106   -2.0956 H   0  0  0  0  0  0
   66.8038   28.7803   -1.6342 H   0  0  0  0  0  0
   70.0451   29.2158   -0.2759 H   0  0  0  0  0  0
   72.4085   29.9087   -0.3961 H   0  0  0  0  0  0
   72.9781   32.2661   -0.8126 H   0  0  0  0  0  0
   71.1936   33.9425   -1.1224 H   0  0  0  0  0  0
   68.8285   33.2799   -0.9459 H   0  0  0  0  0  0
   62.2422   28.7561    3.5379 H   0  0  0  0  0  0
   61.8214   28.7326    5.9981 H   0  0  0  0  0  0
   65.6849   27.4367    6.7905 H   0  0  0  0  0  0
   66.2808   27.4596    4.3867 H   0  0  0  0  0  0
  1  6  1  0  0  0
  1  2  2  0  0  0
  1  7  1  0  0  0
  2 11  1  0  0  0
  2  3  1  0  0  0
  3  4  2  0  0  0
  3 23  1  0  0  0
  4  5  1  0  0  0
  4 24  1  0  0  0
  5  6  2  0  0  0
  5 17  1  0  0  0
  6 25  1  0  0  0
  7  8  1  0  0  0
  7 26  1  0  0  0
  8  9  1  0  0  0
  8 10  2  0  0  0
  9 12  2  0  0  0
  9 16  1  0  0  0
 11 27  1  0  0  0
 11 28  1  0  0  0
 12 13  1  0  0  0
 12 29  1  0  0  0
 13 14  2  0  0  0
 13 30  1  0  0  0
 14 15  1  0  0  0
 14 31  1  0  0  0
 15 16  2  0  0  0
 15 32  1  0  0  0
 16 33  1  0  0  0
 17 18  2  0  0  0
 17 22  1  0  0  0
 18 19  1  0  0  0
 18 34  1  0  0  0
 19 20  2  0  0  0
 19 35  1  0  0  0
 20 21  1  0  0  0
 21 22  2  0  0  0
 21 36  1  0  0  0
 22 37  1  0  0  0
M  END
> <s_m_entry_id>
52293

> <s_m_entry_name>
dock_pv.15

> <s_m_Source_Path>
/home/csk/Desktop/cluster/DUD-E-result/hdac2

> <s_m_Source_File>
dock_pv.maegz

> <i_m_Source_File_Index>
15

> <chembl_id>
CHEMBL1095096

> <chembl_pref_name>
None

> <i_lp_mmshare_version>
53161

> <i_f3d_flags>
0

> <r_lp_tautomer_probability>
1

> <s_lp_Force_Field>
OPLS_2005

> <r_lp_Energy>
25.487261

> <b_lp_Chiralities_Consistent>
1

> <s_lp_Variant>
CHEMBL1937_lig261-1

> <s_i_glide_gridfile>
glide-grid_3max

> <i_i_glide_lignum>
299

> <i_i_glide_rotatable_bonds>
4

> <r_i_docking_score>
-9.17733484035458

> <r_i_glide_ligand_efficiency>
-0.417151583652481

> <r_i_glide_ligand_efficiency_sa>
-1.16887514303509

> <r_i_glide_ligand_efficiency_ln>
-2.2432753864045

> <r_i_glide_gscore>
-9.17733484035458

> <r_i_glide_lipo>
-3.33854327294252

> <r_i_glide_hbond>
-0.798129966484996

> <r_i_glide_metal>
-0.614094991208934

> <r_i_glide_rewards>
-1.91135898189274

> <r_i_glide_evdw>
0.797441303730011

> <r_i_glide_ecoul>
-21.3779640197754

> <r_i_glide_erotb>
0.869984668159942

> <r_i_glide_esite>
-0.218369758205528

> <r_i_glide_emodel>
-22.9409430679448

> <r_i_glide_energy>
-20.5805227160454

> <r_i_glide_einternal>
5.84254693984985

> <i_i_glide_confnum>
18

> <i_i_glide_posenum>
362

> <r_i_glide_eff_state_penalty>
0

> <s_user_duplicate_titles>
CHEMBL1937_lig261,626203

> <s_m_subgroup_title>
dock_pv

> <s_m_subgroupid>
dock_pv

> <b_m_subgroup_collapsed>
1

$$$$
CHEMBL1937_lig143
                    3D
 Schrodinger Suite 2021-1.
 35 37  0  0  1  0            999 V2000
   65.8791   29.0199    2.0283 C   0  0  0  0  0  0
   66.2180   29.2715    0.6928 C   0  0  0  0  0  0
   65.3662   28.8132   -0.2999 C   0  0  0  0  0  0
   64.2100   28.1133    0.0184 C   0  0  0  0  0  0
   63.8885   27.8567    1.3490 C   0  0  0  0  0  0
   64.7106   28.3201    2.3747 C   0  0  0  0  0  0
   65.7591   28.9150   -1.6160 N   0  0  0  0  0  0
   67.4887   29.8119    0.3840 N   0  0  0  0  0  0
   67.8180   30.7776   -0.4945 C   0  0  0  0  0  0
   69.2631   31.1936   -0.5597 C   0  0  0  0  0  0
   66.9741   31.3150   -1.2160 O   0  0  0  0  0  0
   69.5956   32.5283   -0.8160 C   0  0  0  0  0  0
   70.9302   32.9150   -0.9119 C   0  0  0  0  0  0
   71.9385   31.9731   -0.7382 C   0  0  0  0  0  0
   71.6210   30.6430   -0.4902 C   0  0  0  0  0  0
   70.2860   30.2535   -0.4160 C   0  0  0  0  0  0
   64.2848   28.1150    3.7958 C   0  0  0  0  0  0
   65.4180   27.7150    5.0865 S   0  0  0  0  0  0
   64.2334   28.1150    6.2969 C   0  0  0  0  0  0
   63.0000   28.4134    5.7338 C   0  0  0  0  0  0
   63.0180   28.3759    4.3303 C   0  0  0  0  0  0
   66.5593   29.3581    2.7867 H   0  0  0  0  0  0
   63.5730   27.7216   -0.7627 H   0  0  0  0  0  0
   63.0020   27.2905    1.5840 H   0  0  0  0  0  0
   65.3192   28.1139   -2.0913 H   0  0  0  0  0  0
   66.7707   28.7736   -1.6475 H   0  0  0  0  0  0
   68.2260   29.4774    1.0009 H   0  0  0  0  0  0
   68.8231   33.2735   -0.9464 H   0  0  0  0  0  0
   71.1863   33.9433   -1.1195 H   0  0  0  0  0  0
   72.9748   32.2713   -0.8073 H   0  0  0  0  0  0
   72.4113   29.9121   -0.3929 H   0  0  0  0  0  0
   70.0492   29.2121   -0.2774 H   0  0  0  0  0  0
   64.4927   28.0697    7.3448 H   0  0  0  0  0  0
   62.1190   28.6430    6.3150 H   0  0  0  0  0  0
   62.1578   28.6165    3.7233 H   0  0  0  0  0  0
  1  6  1  0  0  0
  1  2  2  0  0  0
  1 22  1  0  0  0
  2  3  1  0  0  0
  2  8  1  0  0  0
  3  7  1  0  0  0
  3  4  2  0  0  0
  4  5  1  0  0  0
  4 23  1  0  0  0
  5  6  2  0  0  0
  5 24  1  0  0  0
  6 17  1  0  0  0
  7 25  1  0  0  0
  7 26  1  0  0  0
  8  9  1  0  0  0
  8 27  1  0  0  0
  9 11  2  0  0  0
  9 10  1  0  0  0
 10 12  2  0  0  0
 10 16  1  0  0  0
 12 13  1  0  0  0
 12 28  1  0  0  0
 13 14  2  0  0  0
 13 29  1  0  0  0
 14 15  1  0  0  0
 14 30  1  0  0  0
 15 16  2  0  0  0
 15 31  1  0  0  0
 16 32  1  0  0  0
 17 18  1  0  0  0
 17 21  2  0  0  0
 18 19  1  0  0  0
 19 20  2  0  0  0
 19 33  1  0  0  0
 20 21  1  0  0  0
 20 34  1  0  0  0
 21 35  1  0  0  0
M  END
> <s_m_entry_id>
52294

> <s_m_entry_name>
dock_pv.16

> <s_m_Source_Path>
/home/csk/Desktop/cluster/DUD-E-result/hdac2

> <s_m_Source_File>
dock_pv.maegz

> <i_m_Source_File_Index>
16

> <chembl_id>
CHEMBL271949

> <chembl_pref_name>
None

> <i_lp_mmshare_version>
53161

> <i_f3d_flags>
0

> <r_lp_tautomer_probability>
1

> <s_lp_Force_Field>
OPLS_2005

> <r_lp_Energy>
21.915244

> <b_lp_Chiralities_Consistent>
1

> <s_lp_Variant>
CHEMBL1937_lig143-1

> <s_i_glide_gridfile>
glide-grid_3max

> <i_i_glide_lignum>
168

> <i_i_glide_rotatable_bonds>
4

> <r_i_docking_score>
-9.17660772892049

> <r_i_glide_ligand_efficiency>
-0.436981320424785

> <r_i_glide_ligand_efficiency_sa>
-1.2055983283234

> <r_i_glide_ligand_efficiency_ln>
-2.26889771789369

> <r_i_glide_gscore>
-9.17660772892049

> <r_i_glide_lipo>
-3.49913052843265

> <r_i_glide_hbond>
-0.805839886219556

> <r_i_glide_metal>
-0.608555933957856

> <r_i_glide_rewards>
-1.92699645688781

> <r_i_glide_evdw>
5.61361169815063

> <r_i_glide_ecoul>
-21.6204090118408

> <r_i_glide_erotb>
0.844158241785533

> <r_i_glide_esite>
-0.217862398339566

> <r_i_glide_emodel>
-18.2753848801997

> <r_i_glide_energy>
-16.0067973136902

> <r_i_glide_einternal>
6.47082233428955

> <i_i_glide_confnum>
50

> <i_i_glide_posenum>
130

> <r_i_glide_eff_state_penalty>
0

> <s_user_duplicate_titles>
CHEMBL1937_lig143,435639

> <s_m_subgroup_title>
dock_pv

> <s_m_subgroupid>
dock_pv

> <b_m_subgroup_collapsed>
1

$$$$
CHEMBL1937_lig541
                    3D
 Schrodinger Suite 2021-1.
 42 44  0  0  1  0            999 V2000
   64.9196   28.9147   -0.6265 C   0  0  0  0  0  0
   74.7182   31.6824   -0.7716 O   0  0  0  0  0  0
   61.7228   28.5150    6.2361 C   0  0  0  0  0  0
   69.2964   29.9621   -0.8160 C   0  0  0  0  0  0
   63.3287   28.1150    3.9846 C   0  0  0  0  0  0
   64.8730   28.4970    0.8488 C   0  0  0  0  0  0
   65.5049   28.5150    2.9270 N   0  0  0  0  0  0
   66.7965   30.5080   -0.5664 C   0  0  0  0  0  0
   68.2648   30.8950   -0.7873 C   0  0  0  0  0  0
   70.9689   31.7320   -0.8208 C   0  0  0  0  0  0
   61.9367   28.1150    3.8644 C   0  0  0  0  0  0
   72.4072   32.2212   -0.8059 C   0  0  0  0  0  0
   63.0950   28.3398    6.3887 C   0  0  0  0  0  0
   65.9613   28.6758    1.6274 O   0  0  0  0  0  0
   69.9287   32.6611   -0.8160 C   0  0  0  0  0  0
   66.2180   29.3150   -1.2160 N   0  0  1  0  0  0
   64.2346   28.1981    2.7825 C   0  0  0  0  0  0
   63.8182   28.1150    1.5289 N   0  0  0  0  0  0
   61.1327   28.3522    4.9783 C   0  0  0  0  0  0
   73.3719   31.2801   -0.8160 N   0  0  0  0  0  0
   68.6044   32.2490   -0.7644 C   0  0  0  0  0  0
   63.8825   28.1150    5.2761 C   0  0  0  0  0  0
   70.6291   30.3732   -0.8160 C   0  0  0  0  0  0
   72.6477   33.4321   -0.7880 O   0  0  0  0  0  0
   60.9117   28.8454    7.4077 N   0  3  0  0  0  0
   61.0077   28.1150    8.3840 O   0  0  0  0  0  0
   60.2180   29.8527    7.3471 O   0  5  0  0  0  0
   64.2180   29.7288   -0.7690 H   0  0  0  0  0  0
   64.4915   28.1150   -1.2160 H   0  0  0  0  0  0
   75.0150   31.4071    0.1098 H   0  0  0  0  0  0
   69.0712   28.9150   -0.7799 H   0  0  0  0  0  0
   66.7900   30.3832    0.5049 H   0  0  0  0  0  0
   66.1708   31.3656   -0.8160 H   0  0  0  0  0  0
   61.4736   28.0386    2.8935 H   0  0  0  0  0  0
   63.5694   28.4029    7.3558 H   0  0  0  0  0  0
   70.1419   33.7150   -0.8166 H   0  0  0  0  0  0
   66.8710   28.5257   -1.1880 H   0  0  0  0  0  0
   60.0582   28.4131    4.8631 H   0  0  0  0  0  0
   73.2617   30.2763   -0.8099 H   0  0  0  0  0  0
   67.8290   32.9969   -0.6978 H   0  0  0  0  0  0
   64.9521   28.0432    5.4170 H   0  0  0  0  0  0
   71.3935   29.6138   -0.8157 H   0  0  0  0  0  0
  1  6  1  0  0  0
  1 16  1  0  0  0
  1 28  1  0  0  0
  1 29  1  0  0  0
  2 20  1  0  0  0
  2 30  1  0  0  0
  3 19  1  0  0  0
  3 13  2  0  0  0
  3 25  1  0  0  0
  4 23  1  0  0  0
  4  9  2  0  0  0
  4 31  1  0  0  0
  5 22  2  0  0  0
  5 17  1  0  0  0
  5 11  1  0  0  0
  6 14  1  0  0  0
  6 18  2  0  0  0
  7 14  1  0  0  0
  7 17  2  0  0  0
  8  9  1  0  0  0
  8 16  1  0  0  0
  8 32  1  0  0  0
  8 33  1  0  0  0
  9 21  1  0  0  0
 10 12  1  0  0  0
 10 23  2  0  0  0
 10 15  1  0  0  0
 11 19  2  0  0  0
 11 34  1  0  0  0
 12 24  2  0  0  0
 12 20  1  0  0  0
 13 22  1  0  0  0
 13 35  1  0  0  0
 15 21  2  0  0  0
 15 36  1  0  0  0
 16 37  1  0  0  0
 17 18  1  0  0  0
 19 38  1  0  0  0
 20 39  1  0  0  0
 21 40  1  0  0  0
 22 41  1  0  0  0
 23 42  1  0  0  0
 25 26  2  0  0  0
 25 27  1  0  0  0
M  CHG  2  25   1  27  -1
M  END
> <s_m_entry_id>
52295

> <s_m_entry_name>
dock_pv.17

> <s_m_Source_Path>
/home/csk/Desktop/cluster/DUD-E-result/hdac2

> <s_m_Source_File>
dock_pv.maegz

> <i_m_Source_File_Index>
17

> <chembl_id>
CHEMBL3421752

> <chembl_pref_name>
None

> <i_lp_mmshare_version>
53161

> <i_f3d_flags>
0

> <r_lp_tautomer_probability>
1

> <s_lp_Force_Field>
OPLS_2005

> <r_lp_Energy>
31.834148

> <b_lp_Chiralities_Consistent>
1

> <s_lp_Variant>
CHEMBL1937_lig541-1

> <s_i_glide_gridfile>
glide-grid_3max

> <i_i_glide_lignum>
598

> <i_i_glide_rotatable_bonds>
9

> <r_i_docking_score>
-9.16133687134239

> <r_i_glide_ligand_efficiency>
-0.339308773012681

> <r_i_glide_ligand_efficiency_sa>
-1.01792631791974

> <r_i_glide_ligand_efficiency_ln>
-2.13260818720604

> <r_i_glide_gscore>
-9.16133687134239

> <r_i_glide_lipo>
-2.55272636163129

> <r_i_glide_hbond>
-0.291099891265856

> <r_i_glide_metal>
-2.3

> <r_i_glide_rewards>
-1.34091864497206

> <r_i_glide_evdw>
-25.5304374694824

> <r_i_glide_ecoul>
-14.696141242981

> <r_i_glide_erotb>
0.989391262900987

> <r_i_glide_esite>
-0.185040176452905

> <r_i_glide_emodel>
-45.1171568841855

> <r_i_glide_energy>
-40.2265787124634

> <r_i_glide_einternal>
7.56984996795654

> <i_i_glide_confnum>
30

> <i_i_glide_posenum>
308

> <r_i_glide_eff_state_penalty>
0

> <s_user_duplicate_titles>
CHEMBL1937_lig541

> <s_m_subgroup_title>
dock_pv

> <s_m_subgroupid>
dock_pv

> <b_m_subgroup_collapsed>
1

$$$$
CHEMBL1937_lig87
                    3D
 Schrodinger Suite 2021-1.
 42 43  0  0  1  0            999 V2000
   67.3823   30.3046   -0.4491 C   0  0  0  0  0  0
   68.7968   30.8265   -0.4972 C   0  0  0  0  0  0
   69.0477   32.1664   -0.8160 C   0  0  0  0  0  0
   70.3514   32.5774   -1.2157 C   0  0  0  0  0  0
   62.6180   28.5150    5.6682 C   0  0  0  0  0  0
   66.5566   30.7745   -1.2160 O   0  0  0  0  0  0
   69.8745   29.9573   -0.4108 C   0  0  0  0  0  0
   62.0290   29.0297    6.6223 O   0  0  0  0  0  0
   62.0904   28.3054    4.4400 N   0  0  0  0  0  0
   71.4497   31.6951   -1.0205 C   0  0  0  0  0  0
   71.1860   30.4004   -0.5528 C   0  0  0  0  0  0
   67.0292   29.3150    0.3840 N   0  0  0  0  0  0
   60.7023   28.5129    4.3407 O   0  0  0  0  0  0
   70.5992   33.8154   -1.8488 C   0  0  0  0  0  0
   62.7284   27.7151    3.2495 C   0  0  0  0  0  0
   65.8632   28.4518    0.2160 C   0  0  0  0  0  0
   72.7627   32.1165   -1.3463 C   0  0  0  0  0  0
   64.2233   28.0080    3.0120 C   0  0  0  0  0  0
   64.5734   29.0984    0.6978 C   0  0  0  0  0  0
   64.4856   29.2996    2.2168 C   0  0  0  0  0  0
   71.8927   34.2024   -2.1905 C   0  0  0  0  0  0
   72.9700   33.3648   -1.9252 C   0  0  0  0  0  0
   68.2280   32.8632   -0.9222 H   0  0  0  0  0  0
   63.6631   28.1775    5.7189 H   0  0  0  0  0  0
   69.6956   28.9150   -0.2123 H   0  0  0  0  0  0
   72.0102   29.7135   -0.4253 H   0  0  0  0  0  0
   67.7056   29.0312    1.0910 H   0  0  0  0  0  0
   60.3369   27.6229    4.2783 H   0  0  0  0  0  0
   69.7717   34.4845   -2.0313 H   0  0  0  0  0  0
   62.5647   26.6421    3.1841 H   0  0  0  0  0  0
   62.2005   28.0839    2.3841 H   0  0  0  0  0  0
   66.0590   27.5451    0.7860 H   0  0  0  0  0  0
   65.7662   28.1149   -0.8172 H   0  0  0  0  0  0
   73.5966   31.4503   -1.1731 H   0  0  0  0  0  0
   64.7994   27.9982    3.9362 H   0  0  0  0  0  0
   64.6179   27.1770    2.4351 H   0  0  0  0  0  0
   63.7224   28.5146    0.3458 H   0  0  0  0  0  0
   64.5092   30.0677    0.2124 H   0  0  0  0  0  0
   63.6771   30.0064    2.3840 H   0  0  0  0  0  0
   65.4028   29.7682    2.5736 H   0  0  0  0  0  0
   72.0622   35.1647   -2.6515 H   0  0  0  0  0  0
   73.9714   33.6777   -2.1831 H   0  0  0  0  0  0
  1  2  1  0  0  0
  1  6  2  0  0  0
  1 12  1  0  0  0
  2  3  1  0  0  0
  2  7  2  0  0  0
  3  4  2  0  0  0
  3 23  1  0  0  0
  4 14  1  0  0  0
  4 10  1  0  0  0
  5  9  1  0  0  0
  5  8  2  0  0  0
  5 24  1  0  0  0
  7 11  1  0  0  0
  7 25  1  0  0  0
  9 15  1  0  0  0
  9 13  1  0  0  0
 10 11  2  0  0  0
 10 17  1  0  0  0
 11 26  1  0  0  0
 12 16  1  0  0  0
 12 27  1  0  0  0
 13 28  1  0  0  0
 14 21  2  0  0  0
 14 29  1  0  0  0
 15 18  1  0  0  0
 15 30  1  0  0  0
 15 31  1  0  0  0
 16 19  1  0  0  0
 16 32  1  0  0  0
 16 33  1  0  0  0
 17 22  2  0  0  0
 17 34  1  0  0  0
 18 20  1  0  0  0
 18 35  1  0  0  0
 18 36  1  0  0  0
 19 20  1  0  0  0
 19 37  1  0  0  0
 19 38  1  0  0  0
 20 39  1  0  0  0
 20 40  1  0  0  0
 21 22  1  0  0  0
 21 41  1  0  0  0
 22 42  1  0  0  0
M  END
> <s_m_entry_id>
52296

> <s_m_entry_name>
dock_pv.18

> <s_m_Source_Path>
/home/csk/Desktop/cluster/DUD-E-result/hdac2

> <s_m_Source_File>
dock_pv.maegz

> <i_m_Source_File_Index>
18

> <chembl_id>
CHEMBL343717

> <chembl_pref_name>
None

> <i_lp_mmshare_version>
53161

> <i_f3d_flags>
0

> <r_lp_tautomer_probability>
1

> <s_lp_Force_Field>
OPLS_2005

> <r_lp_Energy>
23.918896

> <b_lp_Chiralities_Consistent>
1

> <s_lp_Variant>
CHEMBL1937_lig87-1

> <s_i_glide_gridfile>
glide-grid_3max

> <i_i_glide_lignum>
95

> <i_i_glide_rotatable_bonds>
10

> <r_i_docking_score>
-9.12113187056551

> <r_i_glide_ligand_efficiency>
-0.414596903207523

> <r_i_glide_ligand_efficiency_sa>
-1.16171682795843

> <r_i_glide_ligand_efficiency_ln>
-2.22953733053492

> <r_i_glide_gscore>
-9.12113187056551

> <r_i_glide_lipo>
-3.28750148824839

> <r_i_glide_hbond>
-0.319215742894218

> <r_i_glide_metal>
-2.3

> <r_i_glide_rewards>
-1.76790871536633

> <r_i_glide_evdw>
-20.0646743774414

> <r_i_glide_ecoul>
-11.2559499740601

> <r_i_glide_erotb>
1.42623416146645

> <r_i_glide_esite>
-0.181113870541939

> <r_i_glide_emodel>
-41.4577634398246

> <r_i_glide_energy>
-31.3206243515015

> <r_i_glide_einternal>
11.0427780151367

> <i_i_glide_confnum>
6

> <i_i_glide_posenum>
318

> <r_i_glide_eff_state_penalty>
0

> <s_user_duplicate_titles>
CHEMBL1937_lig87

> <s_m_subgroup_title>
dock_pv

> <s_m_subgroupid>
dock_pv

> <b_m_subgroup_collapsed>
1

$$$$
CHEMBL1937_lig260
                    3D
 Schrodinger Suite 2021-1.
 42 44  0  0  1  0            999 V2000
   66.2426   29.2736    0.6814 C   0  0  0  0  0  0
   65.3973   28.8160   -0.3153 C   0  0  0  0  0  0
   64.2354   28.1145   -0.0255 C   0  0  0  0  0  0
   63.9164   27.8294    1.2871 C   0  0  0  0  0  0
   64.7269   28.2973    2.3212 C   0  0  0  0  0  0
   65.8960   29.0057    2.0070 C   0  0  0  0  0  0
   67.5074   29.8342    0.3840 N   0  0  0  0  0  0
   67.8180   30.8055   -0.4903 C   0  0  0  0  0  0
   69.2551   31.2579   -0.5497 C   0  0  0  0  0  0
   66.9636   31.3150   -1.2160 O   0  0  0  0  0  0
   65.8101   28.9150   -1.6160 N   0  0  0  0  0  0
   69.5559   32.5916   -0.8475 C   0  0  0  0  0  0
   70.8804   33.0084   -0.9604 C   0  0  0  0  0  0
   71.9129   32.1051   -0.7346 C   0  0  0  0  0  0
   71.6297   30.7809   -0.4242 C   0  0  0  0  0  0
   70.3050   30.3552   -0.3574 C   0  0  0  0  0  0
   64.2769   28.1150    3.7118 C   0  0  0  0  0  0
   62.9649   28.5101    3.9797 C   0  0  0  0  0  0
   62.4683   28.5150    5.2630 C   0  0  0  0  0  0
   63.2736   28.0952    6.3197 C   0  0  0  0  0  0
   64.6180   27.7619    6.0771 C   0  0  0  0  0  0
   65.1232   27.7446    4.7730 C   0  0  0  0  0  0
   62.7308   27.7150    7.5324 O   0  0  0  0  0  0
   61.4179   28.1658    7.8939 C   0  0  0  0  0  0
   63.6058   27.7314   -0.8160 H   0  0  0  0  0  0
   63.0189   27.2662    1.5000 H   0  0  0  0  0  0
   66.5560   29.3461    2.7840 H   0  0  0  0  0  0
   68.2471   29.5082    1.0013 H   0  0  0  0  0  0
   65.3781   28.1145   -2.0984 H   0  0  0  0  0  0
   66.8225   28.7819   -1.6371 H   0  0  0  0  0  0
   68.7657   33.3105   -1.0142 H   0  0  0  0  0  0
   71.1081   34.0329   -1.2160 H   0  0  0  0  0  0
   72.9410   32.4296   -0.8057 H   0  0  0  0  0  0
   72.4397   30.0829   -0.2682 H   0  0  0  0  0  0
   70.1025   29.3151   -0.1587 H   0  0  0  0  0  0
   62.3100   28.8253    3.1840 H   0  0  0  0  0  0
   61.4277   28.7613    5.3822 H   0  0  0  0  0  0
   65.2401   27.4193    6.8907 H   0  0  0  0  0  0
   66.1526   27.4715    4.5969 H   0  0  0  0  0  0
   61.0807   27.6350    8.7842 H   0  0  0  0  0  0
   61.4179   29.2326    8.1193 H   0  0  0  0  0  0
   60.6566   28.0233    7.1359 H   0  0  0  0  0  0
  1  6  1  0  0  0
  1  2  2  0  0  0
  1  7  1  0  0  0
  2  3  1  0  0  0
  2 11  1  0  0  0
  3  4  2  0  0  0
  3 25  1  0  0  0
  4  5  1  0  0  0
  4 26  1  0  0  0
  5 17  1  0  0  0
  5  6  2  0  0  0
  6 27  1  0  0  0
  7  8  1  0  0  0
  7 28  1  0  0  0
  8  9  1  0  0  0
  8 10  2  0  0  0
  9 12  2  0  0  0
  9 16  1  0  0  0
 11 29  1  0  0  0
 11 30  1  0  0  0
 12 13  1  0  0  0
 12 31  1  0  0  0
 13 14  2  0  0  0
 13 32  1  0  0  0
 14 15  1  0  0  0
 14 33  1  0  0  0
 15 16  2  0  0  0
 15 34  1  0  0  0
 16 35  1  0  0  0
 17 18  2  0  0  0
 17 22  1  0  0  0
 18 19  1  0  0  0
 18 36  1  0  0  0
 19 20  2  0  0  0
 19 37  1  0  0  0
 20 21  1  0  0  0
 20 23  1  0  0  0
 21 22  2  0  0  0
 21 38  1  0  0  0
 22 39  1  0  0  0
 23 24  1  0  0  0
 24 40  1  0  0  0
 24 41  1  0  0  0
 24 42  1  0  0  0
M  END
> <s_m_entry_id>
52297

> <s_m_entry_name>
dock_pv.19

> <s_m_Source_Path>
/home/csk/Desktop/cluster/DUD-E-result/hdac2

> <s_m_Source_File>
dock_pv.maegz

> <i_m_Source_File_Index>
19

> <chembl_id>
CHEMBL1095412

> <chembl_pref_name>
None

> <i_lp_mmshare_version>
53161

> <i_f3d_flags>
0

> <r_lp_tautomer_probability>
1

> <s_lp_Force_Field>
OPLS_2005

> <r_lp_Energy>
29.955576

> <b_lp_Chiralities_Consistent>
1

> <s_lp_Variant>
CHEMBL1937_lig260-1

> <s_i_glide_gridfile>
glide-grid_3max

> <i_i_glide_lignum>
298

> <i_i_glide_rotatable_bonds>
5

> <r_i_docking_score>
-9.05704640526655

> <r_i_glide_ligand_efficiency>
-0.377376933552773

> <r_i_glide_ligand_efficiency_sa>
-1.08854343936768

> <r_i_glide_ligand_efficiency_ln>
-2.16776680555891

> <r_i_glide_gscore>
-9.05704640526655

> <r_i_glide_lipo>
-3.66954040418327

> <r_i_glide_hbond>
-0.79599231837119

> <r_i_glide_metal>
-0.650657409743214

> <r_i_glide_rewards>
-1.67747026528271

> <r_i_glide_evdw>
7.68871927261353

> <r_i_glide_ecoul>
-21.0978183746338

> <r_i_glide_erotb>
0.735758888004422

> <r_i_glide_esite>
-0.218908103126194

> <r_i_glide_emodel>
-13.9324671897355

> <r_i_glide_energy>
-13.4090991020203

> <r_i_glide_einternal>
9.39057350158691

> <i_i_glide_confnum>
42

> <i_i_glide_posenum>
329

> <r_i_glide_eff_state_penalty>
0

> <s_user_duplicate_titles>
CHEMBL1937_lig260,626204

> <s_m_subgroup_title>
dock_pv

> <s_m_subgroupid>
dock_pv

> <b_m_subgroup_collapsed>
1

$$$$
CHEMBL1937_lig258
                    3D
 Schrodinger Suite 2021-1.
 35 37  0  0  1  0            999 V2000
   66.2180   29.2817    0.6883 C   0  0  0  0  0  0
   65.3693   28.8166   -0.3037 C   0  0  0  0  0  0
   64.2124   28.1150    0.0108 C   0  0  0  0  0  0
   63.8819   27.8729    1.3413 C   0  0  0  0  0  0
   64.7020   28.3475    2.3616 C   0  0  0  0  0  0
   65.8743   29.0395    2.0215 C   0  0  0  0  0  0
   67.4901   29.8173    0.3840 N   0  0  0  0  0  0
   67.8180   30.7815   -0.4943 C   0  0  0  0  0  0
   69.2633   31.1962   -0.5601 C   0  0  0  0  0  0
   66.9731   31.3150   -1.2160 O   0  0  0  0  0  0
   65.7686   28.9150   -1.6160 N   0  0  0  0  0  0
   70.2852   30.2548   -0.4160 C   0  0  0  0  0  0
   71.6207   30.6425   -0.4904 C   0  0  0  0  0  0
   71.9398   31.9720   -0.7389 C   0  0  0  0  0  0
   70.9325   32.9150   -0.9124 C   0  0  0  0  0  0
   69.5973   32.5304   -0.8160 C   0  0  0  0  0  0
   64.3217   28.1150    3.7825 C   0  0  0  0  0  0
   65.3267   28.0343    4.7068 O   0  0  0  0  0  0
   64.7513   28.0351    5.9436 C   0  0  0  0  0  0
   63.3730   28.1150    5.8202 C   0  0  0  0  0  0
   63.0931   28.1150    4.4450 C   0  0  0  0  0  0
   63.5818   27.7150   -0.7713 H   0  0  0  0  0  0
   62.9999   27.3012    1.5798 H   0  0  0  0  0  0
   66.5547   29.3704    2.7841 H   0  0  0  0  0  0
   68.2261   29.4823    1.0020 H   0  0  0  0  0  0
   65.3319   28.1124   -2.0919 H   0  0  0  0  0  0
   66.7805   28.7755   -1.6432 H   0  0  0  0  0  0
   70.0472   29.2137   -0.2767 H   0  0  0  0  0  0
   72.4100   29.9106   -0.3931 H   0  0  0  0  0  0
   72.9764   32.2690   -0.8083 H   0  0  0  0  0  0
   71.1898   33.9429   -1.1201 H   0  0  0  0  0  0
   68.8257   33.2763   -0.9462 H   0  0  0  0  0  0
   65.4209   27.9757    6.7840 H   0  0  0  0  0  0
   62.6544   28.1351    6.6267 H   0  0  0  0  0  0
   62.1164   28.1760    3.9875 H   0  0  0  0  0  0
  1  6  1  0  0  0
  1  2  2  0  0  0
  1  7  1  0  0  0
  2  3  1  0  0  0
  2 11  1  0  0  0
  3  4  2  0  0  0
  3 22  1  0  0  0
  4  5  1  0  0  0
  4 23  1  0  0  0
  5  6  2  0  0  0
  5 17  1  0  0  0
  6 24  1  0  0  0
  7  8  1  0  0  0
  7 25  1  0  0  0
  8  9  1  0  0  0
  8 10  2  0  0  0
  9 12  2  0  0  0
  9 16  1  0  0  0
 11 26  1  0  0  0
 11 27  1  0  0  0
 12 13  1  0  0  0
 12 28  1  0  0  0
 13 14  2  0  0  0
 13 29  1  0  0  0
 14 15  1  0  0  0
 14 30  1  0  0  0
 15 16  2  0  0  0
 15 31  1  0  0  0
 16 32  1  0  0  0
 17 18  1  0  0  0
 17 21  2  0  0  0
 18 19  1  0  0  0
 19 20  2  0  0  0
 19 33  1  0  0  0
 20 21  1  0  0  0
 20 34  1  0  0  0
 21 35  1  0  0  0
M  END
> <s_m_entry_id>
52298

> <s_m_entry_name>
dock_pv.20

> <s_m_Source_Path>
/home/csk/Desktop/cluster/DUD-E-result/hdac2

> <s_m_Source_File>
dock_pv.maegz

> <i_m_Source_File_Index>
20

> <chembl_id>
CHEMBL1097651

> <chembl_pref_name>
None

> <i_lp_mmshare_version>
53161

> <i_f3d_flags>
0

> <r_lp_tautomer_probability>
1

> <s_lp_Force_Field>
OPLS_2005

> <r_lp_Energy>
19.37851

> <b_lp_Chiralities_Consistent>
1

> <s_lp_Variant>
CHEMBL1937_lig258-1

> <s_i_glide_gridfile>
glide-grid_3max

> <i_i_glide_lignum>
296

> <i_i_glide_rotatable_bonds>
4

> <r_i_docking_score>
-9.02079258346965

> <r_i_glide_ligand_efficiency>
-0.429561551593793

> <r_i_glide_ligand_efficiency_sa>
-1.18512774873318

> <r_i_glide_ligand_efficiency_ln>
-2.23037273803511

> <r_i_glide_gscore>
-9.02079258346965

> <r_i_glide_lipo>
-3.26088698873206

> <r_i_glide_hbond>
-0.803521898581471

> <r_i_glide_metal>
-0.612860208977232

> <r_i_glide_rewards>
-1.9615386844729

> <r_i_glide_evdw>
3.23577737808228

> <r_i_glide_ecoul>
-21.7092933654785

> <r_i_glide_erotb>
0.93081265946433

> <r_i_glide_esite>
-0.218192326252651

> <r_i_glide_emodel>
-22.5455321656684

> <r_i_glide_energy>
-18.4735159873962

> <r_i_glide_einternal>
7.58021879196167

> <i_i_glide_confnum>
31

> <i_i_glide_posenum>
143

> <r_i_glide_eff_state_penalty>
0

> <s_user_duplicate_titles>
CHEMBL1937_lig258,626206

> <s_m_subgroup_title>
dock_pv

> <s_m_subgroupid>
dock_pv

> <b_m_subgroup_collapsed>
1

$$$$
CHEMBL1937_lig22
                    3D
 Schrodinger Suite 2021-1.
 35 36  0  0  1  0            999 V2000
   64.6719   28.4371    3.1416 C   0  0  0  0  0  0
   65.6495   28.1150    4.0965 C   0  0  0  0  0  0
   65.3309   27.9156    5.4419 C   0  0  0  0  0  0
   64.0269   28.1150    5.8826 C   0  0  0  0  0  0
   63.0180   28.3726    4.9474 C   0  0  0  0  0  0
   63.3517   28.5150    3.5826 C   0  0  0  0  0  0
   61.6093   28.5150    5.4248 C   0  0  0  0  0  0
   60.6885   28.2102    4.5012 N   0  0  0  0  0  0
   61.3617   28.9150    6.5665 O   0  0  0  0  0  0
   59.3732   28.5150    4.7829 O   0  0  0  0  0  0
   65.0012   28.8061    1.7350 C   0  0  0  0  0  0
   66.2180   29.2484    1.3540 C   0  0  0  0  0  0
   66.6114   29.7150    0.0381 C   0  0  0  0  0  0
   67.9535   29.7803   -0.0160 N   0  0  0  0  0  0
   65.8180   30.1150   -0.8160 O   0  0  0  0  0  0
   68.8472   30.6587   -0.6289 C   0  0  0  0  0  0
   69.5974   32.8806   -1.2160 C   0  0  0  0  0  0
   70.8832   32.3906   -1.4201 C   0  0  0  0  0  0
   71.1609   31.0442   -1.2130 C   0  0  0  0  0  0
   70.1425   30.1825   -0.8160 C   0  0  0  0  0  0
   68.5803   32.0171   -0.8070 C   0  0  0  0  0  0
   66.6800   28.0212    3.8014 H   0  0  0  0  0  0
   66.0839   27.6463    6.1553 H   0  0  0  0  0  0
   63.8016   27.9995    6.9345 H   0  0  0  0  0  0
   62.6028   28.7613    2.8500 H   0  0  0  0  0  0
   60.8256   27.8399    3.5715 H   0  0  0  0  0  0
   58.9362   27.6533    4.7376 H   0  0  0  0  0  0
   64.2072   28.7206    1.0049 H   0  0  0  0  0  0
   66.9920   29.3150    2.1041 H   0  0  0  0  0  0
   68.4160   29.1659    0.6473 H   0  0  0  0  0  0
   69.3932   33.9264   -1.3786 H   0  0  0  0  0  0
   71.6730   33.0600   -1.7286 H   0  0  0  0  0  0
   72.1645   30.6678   -1.3507 H   0  0  0  0  0  0
   70.3716   29.1444   -0.6378 H   0  0  0  0  0  0
   67.5969   32.4115   -0.6023 H   0  0  0  0  0  0
  1  2  2  0  0  0
  1  6  1  0  0  0
  1 11  1  0  0  0
  2  3  1  0  0  0
  2 22  1  0  0  0
  3  4  2  0  0  0
  3 23  1  0  0  0
  4  5  1  0  0  0
  4 24  1  0  0  0
  5  6  2  0  0  0
  5  7  1  0  0  0
  6 25  1  0  0  0
  7  8  1  0  0  0
  7  9  2  0  0  0
  8 10  1  0  0  0
  8 26  1  0  0  0
 10 27  1  0  0  0
 11 12  2  0  0  0
 11 28  1  0  0  0
 12 13  1  0  0  0
 12 29  1  0  0  0
 13 14  1  0  0  0
 13 15  2  0  0  0
 14 16  1  0  0  0
 14 30  1  0  0  0
 16 20  2  0  0  0
 16 21  1  0  0  0
 17 18  1  0  0  0
 17 21  2  0  0  0
 17 31  1  0  0  0
 18 19  2  0  0  0
 18 32  1  0  0  0
 19 20  1  0  0  0
 19 33  1  0  0  0
 20 34  1  0  0  0
 21 35  1  0  0  0
M  END
> <s_m_entry_id>
52299

> <s_m_entry_name>
dock_pv.21

> <s_m_Source_Path>
/home/csk/Desktop/cluster/DUD-E-result/hdac2

> <s_m_Source_File>
dock_pv.maegz

> <i_m_Source_File_Index>
21

> <chembl_id>
CHEMBL2381524

> <chembl_pref_name>
None

> <i_lp_mmshare_version>
53161

> <i_f3d_flags>
0

> <r_lp_tautomer_probability>
1

> <s_lp_Force_Field>
OPLS_2005

> <r_lp_Energy>
28.676968

> <b_lp_Chiralities_Consistent>
1

> <s_lp_Variant>
CHEMBL1937_lig22-1

> <s_i_glide_gridfile>
glide-grid_3max

> <i_i_glide_lignum>
25

> <i_i_glide_rotatable_bonds>
7

> <r_i_docking_score>
-9.01086113916772

> <r_i_glide_ligand_efficiency>
-0.429088625674653

> <r_i_glide_ligand_efficiency_sa>
-1.18382298198256

> <r_i_glide_ligand_efficiency_ln>
-2.22791720849984

> <r_i_glide_gscore>
-9.01086113916772

> <r_i_glide_lipo>
-3.01862670623388

> <r_i_glide_hbond>
-0.339829331343573

> <r_i_glide_metal>
-2.3

> <r_i_glide_rewards>
-1.72808174066599

> <r_i_glide_evdw>
-3.90078830718994

> <r_i_glide_ecoul>
-15.0775699615479

> <r_i_glide_erotb>
1.13510769074701

> <r_i_glide_esite>
-0.302756142079604

> <r_i_glide_emodel>
-14.8012213399226

> <r_i_glide_energy>
-18.9783582687378

> <r_i_glide_einternal>
22.5172901153564

> <i_i_glide_confnum>
23

> <i_i_glide_posenum>
130

> <r_i_glide_eff_state_penalty>
0

> <s_user_duplicate_titles>
CHEMBL1937_lig22

> <s_m_subgroup_title>
dock_pv

> <s_m_subgroupid>
dock_pv

> <b_m_subgroup_collapsed>
1

$$$$
CHEMBL1937_lig264
                    3D
 Schrodinger Suite 2021-1.
 42 44  0  0  1  0            999 V2000
   64.2648   28.1150    3.7101 C   0  0  0  0  0  0
   62.9427   28.4871    3.9761 C   0  0  0  0  0  0
   62.4488   28.5150    5.2609 C   0  0  0  0  0  0
   63.2623   28.1150    6.3137 C   0  0  0  0  0  0
   64.6180   27.8173    6.0817 C   0  0  0  0  0  0
   65.1222   27.7925    4.7770 C   0  0  0  0  0  0
   66.2466   29.2704    0.6821 C   0  0  0  0  0  0
   65.4016   28.8148   -0.3158 C   0  0  0  0  0  0
   64.2382   28.1150   -0.0276 C   0  0  0  0  0  0
   63.9133   27.8348    1.2838 C   0  0  0  0  0  0
   64.7214   28.2985    2.3201 C   0  0  0  0  0  0
   65.8971   28.9991    2.0071 C   0  0  0  0  0  0
   67.5115   29.8352    0.3840 N   0  0  0  0  0  0
   67.8180   30.8064   -0.4930 C   0  0  0  0  0  0
   69.2536   31.2600   -0.5658 C   0  0  0  0  0  0
   66.9602   31.3150   -1.2160 O   0  0  0  0  0  0
   65.8160   28.9150   -1.6160 N   0  0  0  0  0  0
   69.5474   32.5987   -0.8434 C   0  0  0  0  0  0
   70.8687   33.0193   -0.9793 C   0  0  0  0  0  0
   71.9062   32.1108   -0.8030 C   0  0  0  0  0  0
   71.6297   30.7800   -0.5147 C   0  0  0  0  0  0
   70.3071   30.3548   -0.4159 C   0  0  0  0  0  0
   62.6305   27.7150    7.5840 C   0  0  0  0  0  0
   61.3670   27.9544    7.9838 C   0  0  0  0  0  0
   62.2725   28.7713    3.1840 H   0  0  0  0  0  0
   61.3982   28.7192    5.3961 H   0  0  0  0  0  0
   65.2567   27.5010    6.8936 H   0  0  0  0  0  0
   66.1590   27.5468    4.6034 H   0  0  0  0  0  0
   63.6084   27.7307   -0.8165 H   0  0  0  0  0  0
   63.0180   27.2694    1.4943 H   0  0  0  0  0  0
   66.5577   29.3374    2.7840 H   0  0  0  0  0  0
   68.2530   29.5101    0.9997 H   0  0  0  0  0  0
   65.3842   28.1150   -2.0992 H   0  0  0  0  0  0
   66.8284   28.7815   -1.6364 H   0  0  0  0  0  0
   68.7502   33.3150   -0.9782 H   0  0  0  0  0  0
   71.0902   34.0495   -1.2159 H   0  0  0  0  0  0
   72.9323   32.4364   -0.8952 H   0  0  0  0  0  0
   72.4409   30.0755   -0.3966 H   0  0  0  0  0  0
   70.1072   29.3144   -0.2305 H   0  0  0  0  0  0
   63.2390   27.1253    8.2498 H   0  0  0  0  0  0
   60.6588   28.5149    7.3936 H   0  0  0  0  0  0
   61.0163   27.5773    8.9333 H   0  0  0  0  0  0
  1  6  1  0  0  0
  1  2  2  0  0  0
  1 11  1  0  0  0
  2  3  1  0  0  0
  2 25  1  0  0  0
  3  4  2  0  0  0
  3 26  1  0  0  0
  4  5  1  0  0  0
  4 23  1  0  0  0
  5  6  2  0  0  0
  5 27  1  0  0  0
  6 28  1  0  0  0
  7 12  1  0  0  0
  7  8  2  0  0  0
  7 13  1  0  0  0
  8  9  1  0  0  0
  8 17  1  0  0  0
  9 10  2  0  0  0
  9 29  1  0  0  0
 10 11  1  0  0  0
 10 30  1  0  0  0
 11 12  2  0  0  0
 12 31  1  0  0  0
 13 14  1  0  0  0
 13 32  1  0  0  0
 14 15  1  0  0  0
 14 16  2  0  0  0
 15 18  2  0  0  0
 15 22  1  0  0  0
 17 33  1  0  0  0
 17 34  1  0  0  0
 18 19  1  0  0  0
 18 35  1  0  0  0
 19 20  2  0  0  0
 19 36  1  0  0  0
 20 21  1  0  0  0
 20 37  1  0  0  0
 21 22  2  0  0  0
 21 38  1  0  0  0
 22 39  1  0  0  0
 23 24  2  0  0  0
 23 40  1  0  0  0
 24 41  1  0  0  0
 24 42  1  0  0  0
M  END
> <s_m_entry_id>
52300

> <s_m_entry_name>
dock_pv.22

> <s_m_Source_Path>
/home/csk/Desktop/cluster/DUD-E-result/hdac2

> <s_m_Source_File>
dock_pv.maegz

> <i_m_Source_File_Index>
22

> <chembl_id>
CHEMBL1096397

> <chembl_pref_name>
None

> <i_lp_mmshare_version>
53161

> <i_f3d_flags>
0

> <r_lp_tautomer_probability>
1

> <s_lp_Force_Field>
OPLS_2005

> <r_lp_Energy>
28.361427

> <b_lp_Chiralities_Consistent>
1

> <s_lp_Variant>
CHEMBL1937_lig264-1

> <s_i_glide_gridfile>
glide-grid_3max

> <i_i_glide_lignum>
302

> <i_i_glide_rotatable_bonds>
5

> <r_i_docking_score>
-8.9903650273486

> <r_i_glide_ligand_efficiency>
-0.374598542806192

> <r_i_glide_ligand_efficiency_sa>
-1.08052917365536

> <r_i_glide_ligand_efficiency_ln>
-2.1518068920141

> <r_i_glide_gscore>
-8.9903650273486

> <r_i_glide_lipo>
-3.69340847331457

> <r_i_glide_hbond>
-0.795373190466407

> <r_i_glide_metal>
-0.664504579029925

> <r_i_glide_rewards>
-1.69056925938522

> <r_i_glide_evdw>
5.66311931610107

> <r_i_glide_ecoul>
-21.0054817199707

> <r_i_glide_erotb>
0.940332339927047

> <r_i_glide_esite>
-0.219175572888976

> <r_i_glide_emodel>
-16.8797371281799

> <r_i_glide_energy>
-15.3423624038696

> <r_i_glide_einternal>
6.93816328048706

> <i_i_glide_confnum>
182

> <i_i_glide_posenum>
225

> <r_i_glide_eff_state_penalty>
0

> <s_user_duplicate_titles>
CHEMBL1937_lig264,626135

> <s_m_subgroup_title>
dock_pv

> <s_m_subgroupid>
dock_pv

> <b_m_subgroup_collapsed>
1

$$$$
CHEMBL1937_lig265
                    3D
 Schrodinger Suite 2021-1.
 34 36  0  0  1  0            999 V2000
   66.2180   29.2665    0.6902 C   0  0  0  0  0  0
   65.3704   28.8090   -0.3057 C   0  0  0  0  0  0
   64.2079   28.1150    0.0055 C   0  0  0  0  0  0
   63.8720   27.8761    1.3359 C   0  0  0  0  0  0
   64.6909   28.3380    2.3666 C   0  0  0  0  0  0
   65.8714   29.0197    2.0242 C   0  0  0  0  0  0
   67.4892   29.8105    0.3840 N   0  0  0  0  0  0
   67.8180   30.7801   -0.4911 C   0  0  0  0  0  0
   69.2630   31.1956   -0.5574 C   0  0  0  0  0  0
   66.9753   31.3150   -1.2160 O   0  0  0  0  0  0
   65.7802   28.9150   -1.6160 N   0  0  0  0  0  0
   69.5958   32.5298   -0.8160 C   0  0  0  0  0  0
   70.9305   32.9150   -0.9166 C   0  0  0  0  0  0
   71.9386   31.9725   -0.7454 C   0  0  0  0  0  0
   71.6207   30.6430   -0.4948 C   0  0  0  0  0  0
   70.2856   30.2548   -0.4160 C   0  0  0  0  0  0
   64.2755   28.1150    3.7901 C   0  0  0  0  0  0
   65.4180   27.7150    5.0742 S   0  0  0  0  0  0
   64.1665   28.1150    6.2239 C   0  0  0  0  0  0
   62.9839   28.3836    5.5339 C   0  0  0  0  0  0
   63.0475   28.3528    4.2128 N   0  0  0  0  0  0
   63.5764   27.7226   -0.7797 H   0  0  0  0  0  0
   62.9818   27.3149    1.5691 H   0  0  0  0  0  0
   66.5530   29.3526    2.7840 H   0  0  0  0  0  0
   68.2262   29.4767    1.0016 H   0  0  0  0  0  0
   65.4594   28.0558   -2.0870 H   0  0  0  0  0  0
   66.7998   28.9494   -1.6213 H   0  0  0  0  0  0
   68.8237   33.2755   -0.9453 H   0  0  0  0  0  0
   71.1867   33.9428   -1.1263 H   0  0  0  0  0  0
   72.9749   32.2696   -0.8189 H   0  0  0  0  0  0
   72.4105   29.9113   -0.3995 H   0  0  0  0  0  0
   70.0488   29.2135   -0.2760 H   0  0  0  0  0  0
   64.3469   28.0777    7.2888 H   0  0  0  0  0  0
   62.0328   28.5893    6.0029 H   0  0  0  0  0  0
  1  6  1  0  0  0
  1  2  2  0  0  0
  1  7  1  0  0  0
  2  3  1  0  0  0
  2 11  1  0  0  0
  3  4  2  0  0  0
  3 22  1  0  0  0
  4  5  1  0  0  0
  4 23  1  0  0  0
  5  6  2  0  0  0
  5 17  1  0  0  0
  6 24  1  0  0  0
  7  8  1  0  0  0
  7 25  1  0  0  0
  8  9  1  0  0  0
  8 10  2  0  0  0
  9 12  2  0  0  0
  9 16  1  0  0  0
 11 26  1  0  0  0
 11 27  1  0  0  0
 12 13  1  0  0  0
 12 28  1  0  0  0
 13 14  2  0  0  0
 13 29  1  0  0  0
 14 15  1  0  0  0
 14 30  1  0  0  0
 15 16  2  0  0  0
 15 31  1  0  0  0
 16 32  1  0  0  0
 17 18  1  0  0  0
 17 21  2  0  0  0
 18 19  1  0  0  0
 19 20  2  0  0  0
 19 33  1  0  0  0
 20 21  1  0  0  0
 20 34  1  0  0  0
M  END
> <s_m_entry_id>
52301

> <s_m_entry_name>
dock_pv.23

> <s_m_Source_Path>
/home/csk/Desktop/cluster/DUD-E-result/hdac2

> <s_m_Source_File>
dock_pv.maegz

> <i_m_Source_File_Index>
23

> <chembl_id>
CHEMBL1097278

> <chembl_pref_name>
None

> <i_lp_mmshare_version>
53161

> <i_f3d_flags>
0

> <r_lp_tautomer_probability>
1

> <s_lp_Force_Field>
OPLS_2005

> <r_lp_Energy>
22.437822

> <b_lp_Chiralities_Consistent>
1

> <s_lp_Variant>
CHEMBL1937_lig265-1

> <s_i_glide_gridfile>
glide-grid_3max

> <i_i_glide_lignum>
303

> <i_i_glide_rotatable_bonds>
4

> <r_i_docking_score>
-8.90864887948934

> <r_i_glide_ligand_efficiency>
-0.424221375213778

> <r_i_glide_ligand_efficiency_sa>
-1.17039460702717

> <r_i_glide_ligand_efficiency_ln>
-2.20264543383367

> <r_i_glide_gscore>
-8.90864887948934

> <r_i_glide_lipo>
-3.43020531155998

> <r_i_glide_hbond>
-0.71104865807557

> <r_i_glide_metal>
-0.603645366241326

> <r_i_glide_rewards>
-1.89525033949297

> <r_i_glide_evdw>
4.9692554473877

> <r_i_glide_ecoul>
-20.9244976043701

> <r_i_glide_erotb>
0.839231688119869

> <r_i_glide_esite>
-0.217519023953225

> <r_i_glide_emodel>
-17.6723474500635

> <r_i_glide_energy>
-15.9552421569824

> <r_i_glide_einternal>
8.0820951461792

> <i_i_glide_confnum>
14

> <i_i_glide_posenum>
24

> <r_i_glide_eff_state_penalty>
0

> <s_user_duplicate_titles>
CHEMBL1937_lig265,626134

> <s_m_subgroup_title>
dock_pv

> <s_m_subgroupid>
dock_pv

> <b_m_subgroup_collapsed>
1

$$$$
CHEMBL1937_lig262
                    3D
 Schrodinger Suite 2021-1.
 35 37  0  0  1  0            999 V2000
   66.2180   29.2924    0.6840 C   0  0  0  0  0  0
   65.3767   28.8193   -0.3105 C   0  0  0  0  0  0
   64.2180   28.1150   -0.0079 C   0  0  0  0  0  0
   63.8768   27.8820    1.3194 C   0  0  0  0  0  0
   64.6876   28.3693    2.3408 C   0  0  0  0  0  0
   65.8609   29.0632    2.0141 C   0  0  0  0  0  0
   67.4916   29.8239    0.3840 N   0  0  0  0  0  0
   67.8180   30.7867   -0.4936 C   0  0  0  0  0  0
   69.2637   31.1997   -0.5601 C   0  0  0  0  0  0
   66.9721   31.3150   -1.2160 O   0  0  0  0  0  0
   65.7872   28.9150   -1.6160 N   0  0  0  0  0  0
   69.5996   32.5333   -0.8160 C   0  0  0  0  0  0
   70.9356   32.9150   -0.9131 C   0  0  0  0  0  0
   71.9415   31.9706   -0.7399 C   0  0  0  0  0  0
   71.6203   30.6418   -0.4912 C   0  0  0  0  0  0
   70.2842   30.2567   -0.4160 C   0  0  0  0  0  0
   64.3213   28.1150    3.7537 C   0  0  0  0  0  0
   65.1715   27.7150    4.7933 C   0  0  0  0  0  0
   64.5225   27.7678    5.9840 O   0  0  0  0  0  0
   63.2358   28.1150    5.7155 C   0  0  0  0  0  0
   63.0519   28.2670    4.3457 C   0  0  0  0  0  0
   63.5950   27.7150   -0.7956 H   0  0  0  0  0  0
   62.9992   27.3033    1.5555 H   0  0  0  0  0  0
   66.5320   29.3974    2.7840 H   0  0  0  0  0  0
   68.2263   29.4882    1.0029 H   0  0  0  0  0  0
   65.3557   28.1108   -2.0939 H   0  0  0  0  0  0
   66.7996   28.7788   -1.6363 H   0  0  0  0  0  0
   68.8292   33.2804   -0.9461 H   0  0  0  0  0  0
   71.1947   33.9426   -1.1208 H   0  0  0  0  0  0
   72.9786   32.2659   -0.8098 H   0  0  0  0  0  0
   72.4084   29.9085   -0.3942 H   0  0  0  0  0  0
   70.0448   29.2160   -0.2761 H   0  0  0  0  0  0
   66.2180   27.4685    4.8383 H   0  0  0  0  0  0
   62.5728   28.1701    6.5667 H   0  0  0  0  0  0
   62.1325   28.5275    3.8426 H   0  0  0  0  0  0
  1  6  1  0  0  0
  1  2  2  0  0  0
  1  7  1  0  0  0
  2  3  1  0  0  0
  2 11  1  0  0  0
  3  4  2  0  0  0
  3 22  1  0  0  0
  4  5  1  0  0  0
  4 23  1  0  0  0
  5  6  2  0  0  0
  5 17  1  0  0  0
  6 24  1  0  0  0
  7  8  1  0  0  0
  7 25  1  0  0  0
  8  9  1  0  0  0
  8 10  2  0  0  0
  9 12  2  0  0  0
  9 16  1  0  0  0
 11 26  1  0  0  0
 11 27  1  0  0  0
 12 13  1  0  0  0
 12 28  1  0  0  0
 13 14  2  0  0  0
 13 29  1  0  0  0
 14 15  1  0  0  0
 14 30  1  0  0  0
 15 16  2  0  0  0
 15 31  1  0  0  0
 16 32  1  0  0  0
 17 18  2  0  0  0
 17 21  1  0  0  0
 18 19  1  0  0  0
 18 33  1  0  0  0
 19 20  1  0  0  0
 20 21  2  0  0  0
 20 34  1  0  0  0
 21 35  1  0  0  0
M  END
> <s_m_entry_id>
52302

> <s_m_entry_name>
dock_pv.24

> <s_m_Source_Path>
/home/csk/Desktop/cluster/DUD-E-result/hdac2

> <s_m_Source_File>
dock_pv.maegz

> <i_m_Source_File_Index>
24

> <chembl_id>
CHEMBL1095095

> <chembl_pref_name>
None

> <i_lp_mmshare_version>
53161

> <i_f3d_flags>
0

> <r_lp_tautomer_probability>
1

> <s_lp_Force_Field>
OPLS_2005

> <r_lp_Energy>
20.64202

> <b_lp_Chiralities_Consistent>
1

> <s_lp_Variant>
CHEMBL1937_lig262-1

> <s_i_glide_gridfile>
glide-grid_3max

> <i_i_glide_lignum>
300

> <i_i_glide_rotatable_bonds>
4

> <r_i_docking_score>
-8.7507924030074

> <r_i_glide_ligand_efficiency>
-0.41670440014321

> <r_i_glide_ligand_efficiency_sa>
-1.14965584279278

> <r_i_glide_ligand_efficiency_ln>
-2.16361573900256

> <r_i_glide_gscore>
-8.7507924030074

> <r_i_glide_lipo>
-3.1067680614581

> <r_i_glide_hbond>
-0.799391157648862

> <r_i_glide_metal>
-0.616671012091007

> <r_i_glide_rewards>
-1.9448660308292

> <r_i_glide_evdw>
4.33176279067993

> <r_i_glide_ecoul>
-21.4129734039307

> <r_i_glide_erotb>
0.93081265946433

> <r_i_glide_esite>
-0.21855092938896

> <r_i_glide_emodel>
-20.6336427264717

> <r_i_glide_energy>
-17.0812106132507

> <r_i_glide_einternal>
7.72707843780518

> <i_i_glide_confnum>
28

> <i_i_glide_posenum>
279

> <r_i_glide_eff_state_penalty>
0

> <s_user_duplicate_titles>
CHEMBL1937_lig262,626202

> <s_m_subgroup_title>
dock_pv

> <s_m_subgroupid>
dock_pv

> <b_m_subgroup_collapsed>
1

$$$$
CHEMBL1937_lig465
                    3D
 Schrodinger Suite 2021-1.
 48 49  0  0  1  0            999 V2000
   72.1164   34.0897   -2.9312 C   0  0  0  0  0  0
   72.9851   33.0758   -2.1665 C   0  0  0  0  0  0
   72.2060   31.8916   -1.5514 C   0  0  0  0  0  0
   71.3228   32.2729   -0.3399 C   0  0  0  0  0  0
   70.2882   31.1893    0.0199 C   0  0  0  0  0  0
   69.0710   31.1919   -0.9275 C   0  0  0  0  0  0
   68.2943   29.8709   -0.9434 C   0  0  0  0  0  0
   71.1015   33.7160   -3.5263 O   0  0  0  0  0  0
   72.5529   35.3611   -2.9141 N   0  0  0  0  0  0
   71.8178   36.3346   -3.6073 O   0  0  0  0  0  0
   67.3016   29.7150    0.1210 N   0  0  0  0  0  0
   66.0366   29.2889   -0.0697 C   0  0  0  0  0  0
   62.8485   28.1150    4.5212 N   0  0  0  0  0  0
   63.2920   28.1206    5.8259 C   0  0  0  0  0  0
   62.5738   28.3193    6.8011 O   0  0  0  0  0  0
   64.7342   28.0147    5.9647 C   0  0  0  0  0  0
   65.5689   28.1150    4.9037 C   0  0  0  0  0  0
   65.0647   28.2746    3.5283 C   0  0  0  0  0  0
   65.8182   28.7479    2.4426 C   0  0  0  0  0  0
   65.2954   28.7191    1.1357 C   0  0  0  0  0  0
   64.0556   28.0822    0.9698 C   0  0  0  0  0  0
   63.2824   27.7289    2.0842 C   0  0  0  0  0  0
   63.7060   28.0252    3.3701 C   0  0  0  0  0  0
   61.3847   28.1149    4.3150 C   0  0  0  0  0  0
   65.5112   29.3150   -1.1914 O   0  0  0  0  0  0
   73.7023   32.6815   -2.8866 H   0  0  0  0  0  0
   73.5753   33.5713   -1.3935 H   0  0  0  0  0  0
   71.6167   31.4046   -2.3291 H   0  0  0  0  0  0
   72.9192   31.1306   -1.2290 H   0  0  0  0  0  0
   71.9761   32.4495    0.5150 H   0  0  0  0  0  0
   70.8039   33.2166   -0.5155 H   0  0  0  0  0  0
   70.7868   30.2191    0.0006 H   0  0  0  0  0  0
   69.9424   31.3158    1.0457 H   0  0  0  0  0  0
   68.4085   32.0294   -0.7031 H   0  0  0  0  0  0
   69.4192   31.3650   -1.9453 H   0  0  0  0  0  0
   67.8735   29.7153   -1.9371 H   0  0  0  0  0  0
   69.0100   29.0536   -0.8315 H   0  0  0  0  0  0
   73.3880   35.7247   -2.4776 H   0  0  0  0  0  0
   72.3370   36.4991   -4.3989 H   0  0  0  0  0  0
   67.7018   29.5924    1.0429 H   0  0  0  0  0  0
   65.1210   27.8733    6.9614 H   0  0  0  0  0  0
   66.6180   28.0529    5.0581 H   0  0  0  0  0  0
   66.8186   29.0981    2.6236 H   0  0  0  0  0  0
   63.6487   27.9213   -0.0201 H   0  0  0  0  0  0
   62.3128   27.2824    1.9840 H   0  0  0  0  0  0
   60.8192   27.8758    5.2185 H   0  0  0  0  0  0
   61.0488   29.0877    3.9832 H   0  0  0  0  0  0
   61.0668   27.3778    3.5783 H   0  0  0  0  0  0
  1  2  1  0  0  0
  1  8  2  0  0  0
  1  9  1  0  0  0
  2  3  1  0  0  0
  2 26  1  0  0  0
  2 27  1  0  0  0
  3  4  1  0  0  0
  3 28  1  0  0  0
  3 29  1  0  0  0
  4  5  1  0  0  0
  4 30  1  0  0  0
  4 31  1  0  0  0
  5  6  1  0  0  0
  5 32  1  0  0  0
  5 33  1  0  0  0
  6  7  1  0  0  0
  6 34  1  0  0  0
  6 35  1  0  0  0
  7 11  1  0  0  0
  7 36  1  0  0  0
  7 37  1  0  0  0
  9 10  1  0  0  0
  9 38  1  0  0  0
 10 39  1  0  0  0
 11 12  1  0  0  0
 11 40  1  0  0  0
 12 20  1  0  0  0
 12 25  2  0  0  0
 13 14  1  0  0  0
 13 23  1  0  0  0
 13 24  1  0  0  0
 14 15  2  0  0  0
 14 16  1  0  0  0
 16 17  2  0  0  0
 16 41  1  0  0  0
 17 18  1  0  0  0
 17 42  1  0  0  0
 18 19  1  0  0  0
 18 23  2  0  0  0
 19 20  2  0  0  0
 19 43  1  0  0  0
 20 21  1  0  0  0
 21 22  2  0  0  0
 21 44  1  0  0  0
 22 23  1  0  0  0
 22 45  1  0  0  0
 24 46  1  0  0  0
 24 47  1  0  0  0
 24 48  1  0  0  0
M  END
> <s_m_entry_id>
52303

> <s_m_entry_name>
dock_pv.25

> <s_m_Source_Path>
/home/csk/Desktop/cluster/DUD-E-result/hdac2

> <s_m_Source_File>
dock_pv.maegz

> <i_m_Source_File_Index>
25

> <chembl_id>
CHEMBL3309284

> <chembl_pref_name>
None

> <i_lp_mmshare_version>
53161

> <i_f3d_flags>
0

> <r_lp_tautomer_probability>
1

> <s_lp_Force_Field>
OPLS_2005

> <r_lp_Energy>
29.729532

> <b_lp_Chiralities_Consistent>
1

> <s_lp_Variant>
CHEMBL1937_lig465-1

> <s_i_glide_gridfile>
glide-grid_3max

> <i_i_glide_lignum>
521

> <i_i_glide_rotatable_bonds>
11

> <r_i_docking_score>
-8.7223351240616

> <r_i_glide_ligand_efficiency>
-0.348893404962464

> <r_i_glide_ligand_efficiency_sa>
-1.02017050376113

> <r_i_glide_ligand_efficiency_ln>
-2.06745481169361

> <r_i_glide_gscore>
-8.7223351240616

> <r_i_glide_lipo>
-3.32622228036351

> <r_i_glide_hbond>
-0.528586826169086

> <r_i_glide_metal>
-2.3

> <r_i_glide_rewards>
-1.30154599967559

> <r_i_glide_evdw>
-11.8639669418335

> <r_i_glide_ecoul>
-13.9658718109131

> <r_i_glide_erotb>
1.59260965482209

> <r_i_glide_esite>
-0.170510553946868

> <r_i_glide_emodel>
-32.1030587410382

> <r_i_glide_energy>
-25.8298387527466

> <r_i_glide_einternal>
5.71164035797119

> <i_i_glide_confnum>
71

> <i_i_glide_posenum>
325

> <r_i_glide_eff_state_penalty>
0

> <s_user_duplicate_titles>
CHEMBL1937_lig465

> <s_m_subgroup_title>
dock_pv

> <s_m_subgroupid>
dock_pv

> <b_m_subgroup_collapsed>
1

$$$$
CHEMBL1937_lig256
                    3D
 Schrodinger Suite 2021-1.
 41 44  0  0  1  0            999 V2000
   66.2146   29.2796    0.6835 C   0  0  0  0  0  0
   65.3724   28.8161   -0.3120 C   0  0  0  0  0  0
   64.2161   28.1086   -0.0160 C   0  0  0  0  0  0
   63.8840   27.8347    1.3043 C   0  0  0  0  0  0
   64.6867   28.3148    2.3378 C   0  0  0  0  0  0
   65.8493   29.0382    2.0105 C   0  0  0  0  0  0
   67.4888   29.8137    0.3840 N   0  0  0  0  0  0
   67.8180   30.7811   -0.4907 C   0  0  0  0  0  0
   69.2632   31.1967   -0.5575 C   0  0  0  0  0  0
   66.9743   31.3150   -1.2131 O   0  0  0  0  0  0
   65.7835   28.9150   -1.6160 N   0  0  0  0  0  0
   69.5960   32.5308   -0.8161 C   0  0  0  0  0  0
   70.9307   32.9153   -0.9187 C   0  0  0  0  0  0
   71.9389   31.9730   -0.7468 C   0  0  0  0  0  0
   71.6210   30.6439   -0.4944 C   0  0  0  0  0  0
   70.2859   30.2562   -0.4159 C   0  0  0  0  0  0
   64.3333   28.1150    3.7754 C   0  0  0  0  0  0
   64.7064   28.1150    6.3840 S   0  0  0  0  0  0
   65.2997   27.9158    4.7578 C   0  0  0  0  0  0
   63.0844   28.2911    5.7968 C   0  0  0  0  0  0
   63.0183   28.1459    4.3785 C   0  0  0  0  0  0
   61.7346   28.1150    3.8187 C   0  0  0  0  0  0
   60.6048   28.3228    4.5957 C   0  0  0  0  0  0
   60.7208   28.5664    5.9495 C   0  0  0  0  0  0
   61.9494   28.5226    6.5761 C   0  0  0  0  0  0
   63.5964   27.7148   -0.8093 H   0  0  0  0  0  0
   63.0186   27.2244    1.5021 H   0  0  0  0  0  0
   66.5094   29.3885    2.7840 H   0  0  0  0  0  0
   68.2242   29.4771    1.0018 H   0  0  0  0  0  0
   65.3493   28.1157   -2.0984 H   0  0  0  0  0  0
   66.7956   28.7781   -1.6362 H   0  0  0  0  0  0
   68.8240   33.2766   -0.9446 H   0  0  0  0  0  0
   71.1864   33.9433   -1.1288 H   0  0  0  0  0  0
   72.9752   32.2700   -0.8203 H   0  0  0  0  0  0
   72.4105   29.9120   -0.3971 H   0  0  0  0  0  0
   70.0487   29.2152   -0.2753 H   0  0  0  0  0  0
   66.3576   27.7831    4.6025 H   0  0  0  0  0  0
   61.5848   27.9536    2.7837 H   0  0  0  0  0  0
   59.6234   28.3132    4.1437 H   0  0  0  0  0  0
   59.8265   28.7339    6.5327 H   0  0  0  0  0  0
   62.0012   28.6377    7.6348 H   0  0  0  0  0  0
  1  6  1  0  0  0
  1  2  2  0  0  0
  1  7  1  0  0  0
  2  3  1  0  0  0
  2 11  1  0  0  0
  3  4  2  0  0  0
  3 26  1  0  0  0
  4  5  1  0  0  0
  4 27  1  0  0  0
  5 17  1  0  0  0
  5  6  2  0  0  0
  6 28  1  0  0  0
  7  8  1  0  0  0
  7 29  1  0  0  0
  8  9  1  0  0  0
  8 10  2  0  0  0
  9 16  1  0  0  0
  9 12  2  0  0  0
 11 30  1  0  0  0
 11 31  1  0  0  0
 12 13  1  0  0  0
 12 32  1  0  0  0
 13 14  2  0  0  0
 13 33  1  0  0  0
 14 15  1  0  0  0
 14 34  1  0  0  0
 15 16  2  0  0  0
 15 35  1  0  0  0
 16 36  1  0  0  0
 17 21  1  0  0  0
 17 19  2  0  0  0
 18 20  1  0  0  0
 18 19  1  0  0  0
 19 37  1  0  0  0
 20 21  2  0  0  0
 20 25  1  0  0  0
 21 22  1  0  0  0
 22 23  2  0  0  0
 22 38  1  0  0  0
 23 24  1  0  0  0
 23 39  1  0  0  0
 24 25  2  0  0  0
 24 40  1  0  0  0
 25 41  1  0  0  0
M  END
> <s_m_entry_id>
52304

> <s_m_entry_name>
dock_pv.26

> <s_m_Source_Path>
/home/csk/Desktop/cluster/DUD-E-result/hdac2

> <s_m_Source_File>
dock_pv.maegz

> <i_m_Source_File_Index>
26

> <chembl_id>
CHEMBL1097745

> <chembl_pref_name>
None

> <i_lp_mmshare_version>
53161

> <i_f3d_flags>
0

> <r_lp_tautomer_probability>
1

> <s_lp_Force_Field>
OPLS_2005

> <r_lp_Energy>
28.59655

> <b_lp_Chiralities_Consistent>
1

> <s_lp_Variant>
CHEMBL1937_lig256-1

> <s_i_glide_gridfile>
glide-grid_3max

> <i_i_glide_lignum>
294

> <i_i_glide_rotatable_bonds>
4

> <r_i_docking_score>
-8.71361265483008

> <r_i_glide_ligand_efficiency>
-0.348544506193203

> <r_i_glide_ligand_efficiency_sa>
-1.01915031757206

> <r_i_glide_ligand_efficiency_ln>
-2.06538732509443

> <r_i_glide_gscore>
-8.71361265483008

> <r_i_glide_lipo>
-3.69737869707632

> <r_i_glide_hbond>
-0.800037389006609

> <r_i_glide_metal>
-0.597530245941121

> <r_i_glide_rewards>
-1.46901205143221

> <r_i_glide_evdw>
9.2011194229126

> <r_i_glide_ecoul>
-20.2147827148438

> <r_i_glide_erotb>
0.640207162112632

> <r_i_glide_esite>
-0.217699997405517

> <r_i_glide_emodel>
-25.8152403625616

> <r_i_glide_energy>
-11.0136632919312

> <r_i_glide_einternal>
7.37043285369873

> <i_i_glide_confnum>
38

> <i_i_glide_posenum>
130

> <r_i_glide_eff_state_penalty>
0

> <s_user_duplicate_titles>
CHEMBL1937_lig256

> <s_m_subgroup_title>
dock_pv

> <s_m_subgroupid>
dock_pv

> <b_m_subgroup_collapsed>
1

$$$$
CHEMBL1937_lig254
                    3D
 Schrodinger Suite 2021-1.
 38 40  0  0  1  0            999 V2000
   66.1476   29.2823    0.7847 C   0  0  0  0  0  0
   65.3971   28.7951   -0.2921 C   0  0  0  0  0  0
   64.2631   28.0355   -0.0654 C   0  0  0  0  0  0
   63.8607   27.7154    1.2112 C   0  0  0  0  0  0
   64.4755   28.2616    2.3367 C   0  0  0  0  0  0
   65.6677   29.0100    2.1031 C   0  0  0  0  0  0
   67.4180   29.9098    0.5584 N   0  0  0  0  0  0
   67.8074   30.7774   -0.4167 C   0  0  0  0  0  0
   69.2580   31.1579   -0.4972 C   0  0  0  0  0  0
   67.0044   31.2889   -1.2033 O   0  0  0  0  0  0
   65.8175   28.9150   -1.6124 N   0  0  0  0  0  0
   70.2518   30.1826   -0.4160 C   0  0  0  0  0  0
   71.5951   30.5453   -0.4856 C   0  0  0  0  0  0
   71.9453   31.8768   -0.6833 C   0  0  0  0  0  0
   70.9616   32.8516   -0.8169 C   0  0  0  0  0  0
   69.6186   32.4931   -0.7247 C   0  0  0  0  0  0
   63.7287   28.1170    3.6559 C   0  0  0  0  0  0
   62.3251   28.1193    3.6215 C   0  0  0  0  0  0
   61.5464   28.3491    4.7462 C   0  0  0  0  0  0
   63.5264   28.3192    6.0977 C   0  0  0  0  0  0
   64.3106   28.1149    4.9406 C   0  0  0  0  0  0
   62.1464   28.5148    5.9830 C   0  0  0  0  0  0
   61.0180   28.9168    7.4781 Br  0  0  0  0  0  0
   63.7037   27.6264   -0.8926 H   0  0  0  0  0  0
   63.0176   27.0555    1.3084 H   0  0  0  0  0  0
   66.2114   29.4039    2.9472 H   0  0  0  0  0  0
   68.1405   29.5934    1.2033 H   0  0  0  0  0  0
   65.3956   28.1131   -2.1018 H   0  0  0  0  0  0
   66.8313   28.7949   -1.6370 H   0  0  0  0  0  0
   69.9832   29.1426   -0.3198 H   0  0  0  0  0  0
   72.3678   29.7920   -0.4206 H   0  0  0  0  0  0
   72.9888   32.1504   -0.7468 H   0  0  0  0  0  0
   71.2433   33.8799   -0.9874 H   0  0  0  0  0  0
   68.8622   33.2591   -0.8221 H   0  0  0  0  0  0
   61.7933   28.0775    2.6950 H   0  0  0  0  0  0
   60.4717   28.4120    4.6516 H   0  0  0  0  0  0
   64.0027   28.3846    7.0655 H   0  0  0  0  0  0
   65.3854   28.0588    5.0392 H   0  0  0  0  0  0
  1  6  1  0  0  0
  1  2  2  0  0  0
  1  7  1  0  0  0
  2  3  1  0  0  0
  2 11  1  0  0  0
  3  4  2  0  0  0
  3 24  1  0  0  0
  4  5  1  0  0  0
  4 25  1  0  0  0
  5  6  2  0  0  0
  5 17  1  0  0  0
  6 26  1  0  0  0
  7  8  1  0  0  0
  7 27  1  0  0  0
  8  9  1  0  0  0
  8 10  2  0  0  0
  9 12  2  0  0  0
  9 16  1  0  0  0
 11 28  1  0  0  0
 11 29  1  0  0  0
 12 13  1  0  0  0
 12 30  1  0  0  0
 13 14  2  0  0  0
 13 31  1  0  0  0
 14 15  1  0  0  0
 14 32  1  0  0  0
 15 16  2  0  0  0
 15 33  1  0  0  0
 16 34  1  0  0  0
 17 18  2  0  0  0
 17 21  1  0  0  0
 18 19  1  0  0  0
 18 35  1  0  0  0
 19 22  2  0  0  0
 19 36  1  0  0  0
 20 22  1  0  0  0
 20 21  2  0  0  0
 20 37  1  0  0  0
 21 38  1  0  0  0
 22 23  1  0  0  0
M  END
> <s_m_entry_id>
52305

> <s_m_entry_name>
dock_pv.27

> <s_m_Source_Path>
/home/csk/Desktop/cluster/DUD-E-result/hdac2

> <s_m_Source_File>
dock_pv.maegz

> <i_m_Source_File_Index>
27

> <chembl_id>
CHEMBL1097748

> <chembl_pref_name>
None

> <i_lp_mmshare_version>
53161

> <i_f3d_flags>
0

> <r_lp_tautomer_probability>
1

> <s_lp_Force_Field>
OPLS_2005

> <r_lp_Energy>
25.766161

> <b_lp_Chiralities_Consistent>
1

> <s_lp_Variant>
CHEMBL1937_lig254-1

> <s_i_glide_gridfile>
glide-grid_3max

> <i_i_glide_lignum>
292

> <i_i_glide_rotatable_bonds>
4

> <r_i_docking_score>
-8.70477069747153

> <r_i_glide_ligand_efficiency>
-0.378468291194414

> <r_i_glide_ligand_efficiency_sa>
-1.07631347512372

> <r_i_glide_ligand_efficiency_ln>
-2.1048924851454

> <r_i_glide_gscore>
-8.70477069747153

> <r_i_glide_lipo>
-3.58173944364004

> <r_i_glide_hbond>
-0.791004552297943

> <r_i_glide_metal>
-0.490921932863439

> <r_i_glide_rewards>
-1.35208421110391

> <r_i_glide_evdw>
5.2456226348877

> <r_i_glide_ecoul>
-20.7443294525146

> <r_i_glide_erotb>
0.571133679901697

> <r_i_glide_esite>
-0.210785951335082

> <r_i_glide_emodel>
-26.9985929288099

> <r_i_glide_energy>
-15.498706817627

> <r_i_glide_einternal>
13.1745672225952

> <i_i_glide_confnum>
49

> <i_i_glide_posenum>
360

> <r_i_glide_eff_state_penalty>
0

> <s_user_duplicate_titles>
CHEMBL1937_lig254,626286

> <s_m_subgroup_title>
dock_pv

> <s_m_subgroupid>
dock_pv

> <b_m_subgroup_collapsed>
1

$$$$
CHEMBL1937_lig538
                    3D
 Schrodinger Suite 2021-1.
 44 46  0  0  1  0            999 V2000
   66.2180   29.3150   -1.2160 N   0  0  2  0  0  0
   72.6623   33.4076   -0.8523 O   0  0  0  0  0  0
   64.9009   28.4961    0.8567 C   0  0  0  0  0  0
   70.6198   30.3664   -0.8160 C   0  0  0  0  0  0
   69.2861   29.9617   -0.8159 C   0  0  0  0  0  0
   69.9325   32.6602   -0.8159 C   0  0  0  0  0  0
   72.4088   32.1995   -0.8304 C   0  0  0  0  0  0
   66.7914   30.5139   -0.5709 C   0  0  0  0  0  0
   63.4741   28.1150    4.0515 C   0  0  0  0  0  0
   63.8630   28.1230    1.5705 N   0  0  0  0  0  0
   70.9669   31.7235   -0.8258 C   0  0  0  0  0  0
   66.0185   28.6520    1.5978 O   0  0  0  0  0  0
   64.3276   28.1946    2.8094 C   0  0  0  0  0  0
   68.6061   32.2530   -0.7633 C   0  0  0  0  0  0
   65.6013   28.5150    2.9113 N   0  0  0  0  0  0
   68.2601   30.8998   -0.7889 C   0  0  0  0  0  0
   73.3617   31.2466   -0.8160 N   0  0  0  0  0  0
   64.9226   28.9119   -0.6209 C   0  0  0  0  0  0
   62.0838   28.2221    3.9917 C   0  0  0  0  0  0
   61.3537   28.5150    5.1482 C   0  0  0  0  0  0
   62.0020   28.6209    6.3912 C   0  0  0  0  0  0
   63.3631   28.3687    6.4689 C   0  0  0  0  0  0
   64.0874   28.1150    5.3192 C   0  0  0  0  0  0
   74.7136   31.6299   -0.8121 O   0  0  0  0  0  0
   61.4015   28.9602    7.5838 O   0  0  0  0  0  0
   60.1018   29.5146    7.5767 C   0  0  0  0  0  0
   66.8735   28.5285   -1.1804 H   0  0  0  0  0  0
   71.3789   29.6015   -0.8152 H   0  0  0  0  0  0
   69.0559   28.9150   -0.7788 H   0  0  0  0  0  0
   70.1509   33.7150   -0.8183 H   0  0  0  0  0  0
   66.7867   30.3946    0.5003 H   0  0  0  0  0  0
   66.1623   31.3697   -0.8160 H   0  0  0  0  0  0
   67.8340   33.0039   -0.6961 H   0  0  0  0  0  0
   73.2383   30.2451   -0.7793 H   0  0  0  0  0  0
   64.2180   29.7250   -0.7538 H   0  0  0  0  0  0
   64.4942   28.1150   -1.2160 H   0  0  0  0  0  0
   61.5694   28.1477    3.0469 H   0  0  0  0  0  0
   60.2851   28.6324    5.0556 H   0  0  0  0  0  0
   63.8771   28.4134    7.4174 H   0  0  0  0  0  0
   65.1581   27.9981    5.4118 H   0  0  0  0  0  0
   75.0180   31.3891    0.0766 H   0  0  0  0  0  0
   59.7246   29.5539    8.5982 H   0  0  0  0  0  0
   60.1219   30.5303    7.1842 H   0  0  0  0  0  0
   59.4180   28.9151    6.9886 H   0  0  0  0  0  0
  1 18  1  0  0  0
  1  8  1  0  0  0
  1 27  1  0  0  0
  2  7  2  0  0  0
  3 12  1  0  0  0
  3 10  2  0  0  0
  3 18  1  0  0  0
  4  5  1  0  0  0
  4 11  2  0  0  0
  4 28  1  0  0  0
  5 16  2  0  0  0
  5 29  1  0  0  0
  6 14  2  0  0  0
  6 11  1  0  0  0
  6 30  1  0  0  0
  7 11  1  0  0  0
  7 17  1  0  0  0
  8 16  1  0  0  0
  8 31  1  0  0  0
  8 32  1  0  0  0
  9 13  1  0  0  0
  9 19  1  0  0  0
  9 23  2  0  0  0
 10 13  1  0  0  0
 12 15  1  0  0  0
 13 15  2  0  0  0
 14 16  1  0  0  0
 14 33  1  0  0  0
 17 24  1  0  0  0
 17 34  1  0  0  0
 18 35  1  0  0  0
 18 36  1  0  0  0
 19 20  2  0  0  0
 19 37  1  0  0  0
 20 21  1  0  0  0
 20 38  1  0  0  0
 21 22  2  0  0  0
 21 25  1  0  0  0
 22 23  1  0  0  0
 22 39  1  0  0  0
 23 40  1  0  0  0
 24 41  1  0  0  0
 25 26  1  0  0  0
 26 42  1  0  0  0
 26 43  1  0  0  0
 26 44  1  0  0  0
M  END
> <s_m_entry_id>
52306

> <s_m_entry_name>
dock_pv.28

> <s_m_Source_Path>
/home/csk/Desktop/cluster/DUD-E-result/hdac2

> <s_m_Source_File>
dock_pv.maegz

> <i_m_Source_File_Index>
28

> <chembl_id>
CHEMBL3421749

> <chembl_pref_name>
None

> <i_lp_mmshare_version>
53161

> <i_f3d_flags>
0

> <r_lp_tautomer_probability>
1

> <s_lp_Force_Field>
OPLS_2005

> <r_lp_Energy>
32.127021

> <b_lp_Chiralities_Consistent>
1

> <s_lp_Variant>
CHEMBL1937_lig538-1

> <s_i_glide_gridfile>
glide-grid_3max

> <i_i_glide_lignum>
595

> <i_i_glide_rotatable_bonds>
9

> <r_i_docking_score>
-8.69830670686301

> <r_i_glide_ligand_efficiency>
-0.33455025795627

> <r_i_glide_ligand_efficiency_sa>
-0.99110382280375

> <r_i_glide_ligand_efficiency_ln>
-2.04276878863453

> <r_i_glide_gscore>
-8.69830670686301

> <r_i_glide_lipo>
-2.51488510877649

> <r_i_glide_hbond>
-0.288537320523333

> <r_i_glide_metal>
-2.3

> <r_i_glide_rewards>
-1.44821476638608

> <r_i_glide_evdw>
-23.9999713897705

> <r_i_glide_ecoul>
-13.2748203277588

> <r_i_glide_erotb>
1.06517144402655

> <r_i_glide_esite>
-0.0206193365513132

> <r_i_glide_emodel>
-37.639034517707

> <r_i_glide_energy>
-37.2747917175293

> <r_i_glide_einternal>
9.72028064727783

> <i_i_glide_confnum>
62

> <i_i_glide_posenum>
97

> <r_i_glide_eff_state_penalty>
0

> <s_user_duplicate_titles>
CHEMBL1937_lig538

> <s_m_subgroup_title>
dock_pv

> <s_m_subgroupid>
dock_pv

> <b_m_subgroup_collapsed>
1

$$$$
CHEMBL1937_lig533
                    3D
 Schrodinger Suite 2021-1.
 48 51  0  0  1  0            999 V2000
   66.6180   29.7150   -1.1866 N   0  0  2  0  0  0
   73.3633   32.3945   -1.6708 O   0  0  0  0  0  0
   64.9188   28.4855    0.3855 C   0  0  0  0  0  0
   71.0877   30.8326   -0.9943 C   0  0  0  0  0  0
   69.9505   30.1150   -0.6364 C   0  0  0  0  0  0
   72.6739   36.0122   -3.6545 C   0  0  0  0  0  0
   69.7967   32.8599   -1.0315 C   0  0  0  0  0  0
   72.2621   32.9472   -1.6943 C   0  0  0  0  0  0
   74.3095   35.2027   -2.0577 C   0  0  0  0  0  0
   75.2187   36.1600   -2.5061 C   0  0  0  0  0  0
   67.5056   29.9733   -0.0489 C   0  0  0  0  0  0
   64.1907   28.1150    3.7323 C   0  0  0  0  0  0
   65.2420   28.7699    1.6247 N   0  0  0  0  0  0
   73.0305   35.1131   -2.6315 C   0  0  0  0  0  0
   71.0225   32.2088   -1.2312 C   0  0  0  0  0  0
   63.8166   27.7149    0.2823 O   0  0  0  0  0  0
   64.2870   28.1433    2.2942 C   0  0  0  0  0  0
   68.6757   32.1506   -0.6070 C   0  0  0  0  0  0
   63.4180   27.4809    1.5839 N   0  0  0  0  0  0
   74.8583   37.0455   -3.5198 C   0  0  0  0  0  0
   73.5877   36.9740   -4.0890 C   0  0  0  0  0  0
   71.4180   35.9677   -4.2648 N   0  0  0  0  0  0
   68.7376   30.7691   -0.4472 C   0  0  0  0  0  0
   72.0664   34.1998   -2.1592 N   0  0  0  0  0  0
   65.6675   28.6289   -0.9249 C   0  0  0  0  0  0
   62.6755   28.5150    4.5404 S   0  0  0  0  0  0
   63.4180   28.2428    6.0917 C   0  0  0  0  0  0
   64.7681   27.9161    5.9844 C   0  0  0  0  0  0
   65.2065   27.8419    4.6582 C   0  0  0  0  0  0
   67.3067   29.2610   -1.7963 H   0  0  0  0  0  0
   72.0159   30.2927   -1.1292 H   0  0  0  0  0  0
   70.0137   29.0454   -0.5097 H   0  0  0  0  0  0
   69.6833   33.9148   -1.2160 H   0  0  0  0  0  0
   74.6052   34.5450   -1.2529 H   0  0  0  0  0  0
   76.2009   36.2194   -2.0599 H   0  0  0  0  0  0
   67.8190   29.0289    0.3840 H   0  0  0  0  0  0
   67.0180   30.5113    0.7521 H   0  0  0  0  0  0
   67.7481   32.6724   -0.4429 H   0  0  0  0  0  0
   75.5631   37.7888   -3.8632 H   0  0  0  0  0  0
   73.3215   37.6668   -4.8741 H   0  0  0  0  0  0
   71.1666   35.0743   -4.6593 H   0  0  0  0  0  0
   71.1705   36.7795   -4.8160 H   0  0  0  0  0  0
   71.1150   34.5179   -2.2478 H   0  0  0  0  0  0
   64.9274   28.6033   -1.7212 H   0  0  0  0  0  0
   66.2180   27.7140   -1.0571 H   0  0  0  0  0  0
   62.8352   28.3403    6.9955 H   0  0  0  0  0  0
   65.4086   27.7153    6.8298 H   0  0  0  0  0  0
   66.2209   27.6037    4.3840 H   0  0  0  0  0  0
  1 25  1  0  0  0
  1 11  1  0  0  0
  1 30  1  0  0  0
  2  8  2  0  0  0
  3 16  1  0  0  0
  3 13  2  0  0  0
  3 25  1  0  0  0
  4  5  1  0  0  0
  4 15  2  0  0  0
  4 31  1  0  0  0
  5 23  2  0  0  0
  5 32  1  0  0  0
  6 22  1  0  0  0
  6 21  1  0  0  0
  6 14  2  0  0  0
  7 18  2  0  0  0
  7 15  1  0  0  0
  7 33  1  0  0  0
  8 15  1  0  0  0
  8 24  1  0  0  0
  9 10  2  0  0  0
  9 14  1  0  0  0
  9 34  1  0  0  0
 10 20  1  0  0  0
 10 35  1  0  0  0
 11 23  1  0  0  0
 11 36  1  0  0  0
 11 37  1  0  0  0
 12 17  1  0  0  0
 12 26  1  0  0  0
 12 29  2  0  0  0
 13 17  1  0  0  0
 14 24  1  0  0  0
 16 19  1  0  0  0
 17 19  2  0  0  0
 18 23  1  0  0  0
 18 38  1  0  0  0
 20 21  2  0  0  0
 20 39  1  0  0  0
 21 40  1  0  0  0
 22 41  1  0  0  0
 22 42  1  0  0  0
 24 43  1  0  0  0
 25 44  1  0  0  0
 25 45  1  0  0  0
 26 27  1  0  0  0
 27 28  2  0  0  0
 27 46  1  0  0  0
 28 29  1  0  0  0
 28 47  1  0  0  0
 29 48  1  0  0  0
M  END
> <s_m_entry_id>
52307

> <s_m_entry_name>
dock_pv.29

> <s_m_Source_Path>
/home/csk/Desktop/cluster/DUD-E-result/hdac2

> <s_m_Source_File>
dock_pv.maegz

> <i_m_Source_File_Index>
29

> <chembl_id>
CHEMBL3421744

> <chembl_pref_name>
None

> <i_lp_mmshare_version>
53161

> <i_f3d_flags>
0

> <r_lp_tautomer_probability>
1

> <s_lp_Force_Field>
OPLS_2005

> <r_lp_Energy>
27.976698

> <b_lp_Chiralities_Consistent>
1

> <s_lp_Variant>
CHEMBL1937_lig533-1

> <s_i_glide_gridfile>
glide-grid_3max

> <i_i_glide_lignum>
590

> <i_i_glide_rotatable_bonds>
8

> <r_i_docking_score>
-8.56508773412077

> <r_i_glide_ligand_efficiency>
-0.295347852900716

> <r_i_glide_ligand_efficiency_sa>
-0.907402176878562

> <r_i_glide_ligand_efficiency_ln>
-1.96118789922855

> <r_i_glide_gscore>
-8.56508773412077

> <r_i_glide_lipo>
-3.19043064877004

> <r_i_glide_hbond>
-0.300887203286965

> <r_i_glide_metal>
-2.06107091707987

> <r_i_glide_rewards>
-1.230836365684

> <r_i_glide_evdw>
-23.4114685058594

> <r_i_glide_ecoul>
-10.4505996704102

> <r_i_glide_erotb>
0.956300776554592

> <r_i_glide_esite>
0

> <r_i_glide_emodel>
-46.2683409740433

> <r_i_glide_energy>
-33.8620681762695

> <r_i_glide_einternal>
6.897301197052

> <i_i_glide_confnum>
6

> <i_i_glide_posenum>
58

> <r_i_glide_eff_state_penalty>
0

> <s_user_duplicate_titles>
CHEMBL1937_lig533

> <s_m_subgroup_title>
dock_pv

> <s_m_subgroupid>
dock_pv

> <b_m_subgroup_collapsed>
1

$$$$
CHEMBL1937_lig93
                    3D
 Schrodinger Suite 2021-1.
 47 48  0  0  1  0            999 V2000
   62.3340   28.3252    6.8482 C   0  0  0  0  0  0
   61.5443   28.5151    5.7229 C   0  0  0  0  0  0
   62.1168   28.3771    4.4605 C   0  0  0  0  0  0
   63.4847   28.1530    4.3305 C   0  0  0  0  0  0
   64.2886   28.1150    5.4794 C   0  0  0  0  0  0
   63.7056   28.1370    6.7322 C   0  0  0  0  0  0
   64.0572   28.1557    2.9729 C   0  0  0  0  0  0
   63.4700   27.5536    1.8881 C   0  0  0  0  0  0
   64.3176   27.9160    0.4259 S   0  0  0  0  0  0
   65.4303   28.7951    1.4230 C   0  0  0  0  0  0
   65.1724   28.7918    2.6993 N   0  0  0  0  0  0
   66.6180   29.3149    1.0075 N   0  0  0  0  0  0
   67.0182   29.7150   -0.2039 C   0  0  0  0  0  0
   68.4992   30.1563   -0.2069 C   0  0  0  0  0  0
   66.3091   29.7154   -1.2160 O   0  0  0  0  0  0
   68.8472   31.2970   -1.1628 C   0  0  0  0  0  0
   70.0905   32.1289   -0.7964 C   0  0  0  0  0  0
   71.3966   31.5485   -1.3750 C   0  0  0  0  0  0
   72.6255   32.4826   -1.2916 C   0  0  0  0  0  0
   72.4552   33.9598   -1.7512 C   0  0  0  0  0  0
   71.8912   34.2280   -3.1616 C   0  0  0  0  0  0
   71.9125   35.5177   -3.5454 N   0  0  0  0  0  0
   71.4502   33.3153   -3.8639 O   0  0  0  0  0  0
   71.4184   35.8537   -4.8160 O   0  0  0  0  0  0
   60.1449   28.9151    5.8907 N   0  3  0  0  0  0
   59.4180   28.9150    4.9040 O   0  0  0  0  0  0
   59.8180   29.3158    7.0018 O   0  5  0  0  0  0
   61.8180   28.2889    7.7965 H   0  0  0  0  0  0
   61.5010   28.4918    3.5845 H   0  0  0  0  0  0
   65.3590   27.9837    5.3955 H   0  0  0  0  0  0
   64.3387   28.0131    7.5841 H   0  0  0  0  0  0
   62.6182   26.9150    1.9538 H   0  0  0  0  0  0
   67.3388   29.3334    1.7191 H   0  0  0  0  0  0
   69.1304   29.2926   -0.4168 H   0  0  0  0  0  0
   68.7654   30.4935    0.7968 H   0  0  0  0  0  0
   67.9974   31.9778   -1.2158 H   0  0  0  0  0  0
   69.0180   30.8540   -2.1403 H   0  0  0  0  0  0
   70.1753   32.2623    0.2827 H   0  0  0  0  0  0
   69.9342   33.1275   -1.2036 H   0  0  0  0  0  0
   71.2414   31.2742   -2.4173 H   0  0  0  0  0  0
   71.6282   30.6087   -0.8708 H   0  0  0  0  0  0
   73.4431   32.0279   -1.8538 H   0  0  0  0  0  0
   72.9735   32.4919   -0.2570 H   0  0  0  0  0  0
   73.4277   34.4489   -1.6791 H   0  0  0  0  0  0
   71.8191   34.4801   -1.0353 H   0  0  0  0  0  0
   72.2457   36.3158   -3.0227 H   0  0  0  0  0  0
   70.5961   36.3270   -4.6391 H   0  0  0  0  0  0
  1  2  2  0  0  0
  1  6  1  0  0  0
  1 28  1  0  0  0
  2  3  1  0  0  0
  2 25  1  0  0  0
  3  4  2  0  0  0
  3 29  1  0  0  0
  4  7  1  0  0  0
  4  5  1  0  0  0
  5  6  2  0  0  0
  5 30  1  0  0  0
  6 31  1  0  0  0
  7  8  2  0  0  0
  7 11  1  0  0  0
  8  9  1  0  0  0
  8 32  1  0  0  0
  9 10  1  0  0  0
 10 11  2  0  0  0
 10 12  1  0  0  0
 12 13  1  0  0  0
 12 33  1  0  0  0
 13 14  1  0  0  0
 13 15  2  0  0  0
 14 16  1  0  0  0
 14 34  1  0  0  0
 14 35  1  0  0  0
 16 17  1  0  0  0
 16 36  1  0  0  0
 16 37  1  0  0  0
 17 18  1  0  0  0
 17 38  1  0  0  0
 17 39  1  0  0  0
 18 19  1  0  0  0
 18 40  1  0  0  0
 18 41  1  0  0  0
 19 20  1  0  0  0
 19 42  1  0  0  0
 19 43  1  0  0  0
 20 21  1  0  0  0
 20 44  1  0  0  0
 20 45  1  0  0  0
 21 22  1  0  0  0
 21 23  2  0  0  0
 22 24  1  0  0  0
 22 46  1  0  0  0
 24 47  1  0  0  0
 25 26  2  0  0  0
 25 27  1  0  0  0
M  CHG  2  25   1  27  -1
M  END
> <s_m_entry_id>
52308

> <s_m_entry_name>
dock_pv.30

> <s_m_Source_Path>
/home/csk/Desktop/cluster/DUD-E-result/hdac2

> <s_m_Source_File>
dock_pv.maegz

> <i_m_Source_File_Index>
30

> <chembl_id>
CHEMBL387924

> <chembl_pref_name>
None

> <i_lp_mmshare_version>
53161

> <i_f3d_flags>
0

> <r_lp_tautomer_probability>
0.999000488399163

> <s_lp_Force_Field>
OPLS_2005

> <r_lp_Energy>
18.788813

> <b_lp_Chiralities_Consistent>
1

> <s_lp_Variant>
CHEMBL1937_lig93-1

> <s_i_glide_gridfile>
glide-grid_3max

> <i_i_glide_lignum>
102

> <i_i_glide_rotatable_bonds>
13

> <r_i_docking_score>
-8.4334718250163

> <r_i_glide_ligand_efficiency>
-0.312350808333937

> <r_i_glide_ligand_efficiency_sa>
-0.937052423972353

> <r_i_glide_ligand_efficiency_ln>
-1.96317320421445

> <r_i_glide_gscore>
-8.4334718250163

> <r_i_glide_lipo>
-2.56470214902498

> <r_i_glide_hbond>
-0.449633698958438

> <r_i_glide_metal>
-2.3

> <r_i_glide_rewards>
-1.07778185502675

> <r_i_glide_evdw>
-15.7323770523071

> <r_i_glide_ecoul>
-14.6413516998291

> <r_i_glide_erotb>
1.39460452986819

> <r_i_glide_esite>
-0.453137044284592

> <r_i_glide_emodel>
-26.8303617934413

> <r_i_glide_energy>
-30.3737287521362

> <r_i_glide_einternal>
11.7460775375366

> <i_i_glide_confnum>
154

> <i_i_glide_posenum>
259

> <r_i_glide_eff_state_penalty>
0

> <s_user_duplicate_titles>
CHEMBL1937_lig93,382037

> <s_m_subgroup_title>
dock_pv

> <s_m_subgroupid>
dock_pv

> <b_m_subgroup_collapsed>
1

$$$$
CHEMBL1937_lig117
                    3D
 Schrodinger Suite 2021-1.
 35 36  0  0  1  0            999 V2000
   73.2578   35.9157   -5.3875 C   0  0  0  0  0  0
   73.6194   37.1471   -4.8425 C   0  0  0  0  0  0
   73.3001   37.4449   -3.5191 C   0  0  0  0  0  0
   72.6180   36.5122   -2.7391 C   0  0  0  0  0  0
   72.2537   35.2738   -3.2738 C   0  0  0  0  0  0
   72.5733   34.9743   -4.6159 C   0  0  0  0  0  0
   72.2181   33.7636   -5.2160 N   0  0  0  0  0  0
   71.5171   34.4100   -2.4461 N   0  0  0  0  0  0
   71.8640   33.1464   -2.1237 C   0  0  0  0  0  0
   70.7973   32.3035   -1.4558 C   0  0  0  0  0  0
   72.9583   32.6582   -2.4160 O   0  0  0  0  0  0
   69.5345   32.8198   -1.1291 C   0  0  0  0  0  0
   68.5300   31.9887   -0.6398 C   0  0  0  0  0  0
   68.7651   30.6234   -0.4944 C   0  0  0  0  0  0
   70.0320   30.1150   -0.7526 C   0  0  0  0  0  0
   71.0434   30.9475   -1.2160 C   0  0  0  0  0  0
   67.8180   29.7150   -0.0160 N   0  0  0  0  0  0
   66.4820   29.6879   -0.1293 C   0  0  0  0  0  0
   65.7574   28.6012    0.6570 C   0  0  0  0  0  0
   65.8180   30.4527   -0.8160 O   0  0  0  0  0  0
   73.5101   35.7017   -6.4159 H   0  0  0  0  0  0
   74.1473   37.8704   -5.4469 H   0  0  0  0  0  0
   73.5817   38.3988   -3.0977 H   0  0  0  0  0  0
   72.3831   36.7524   -1.7136 H   0  0  0  0  0  0
   72.4122   33.7150   -6.2050 H   0  0  0  0  0  0
   72.4421   32.9554   -4.6514 H   0  0  0  0  0  0
   70.6529   34.7741   -2.0807 H   0  0  0  0  0  0
   69.2891   33.8542   -1.2965 H   0  0  0  0  0  0
   67.5613   32.4060   -0.4160 H   0  0  0  0  0  0
   70.2308   29.0625   -0.6262 H   0  0  0  0  0  0
   72.0101   30.5150   -1.4341 H   0  0  0  0  0  0
   68.2208   28.9845    0.5619 H   0  0  0  0  0  0
   65.4180   27.8129   -0.0160 H   0  0  0  0  0  0
   64.8860   29.0191    1.1618 H   0  0  0  0  0  0
   66.4016   28.1519    1.4138 H   0  0  0  0  0  0
  1  6  1  0  0  0
  1  2  2  0  0  0
  1 21  1  0  0  0
  2  3  1  0  0  0
  2 22  1  0  0  0
  3  4  2  0  0  0
  3 23  1  0  0  0
  4  5  1  0  0  0
  4 24  1  0  0  0
  5  6  2  0  0  0
  5  8  1  0  0  0
  6  7  1  0  0  0
  7 25  1  0  0  0
  7 26  1  0  0  0
  8  9  1  0  0  0
  8 27  1  0  0  0
  9 10  1  0  0  0
  9 11  2  0  0  0
 10 12  2  0  0  0
 10 16  1  0  0  0
 12 13  1  0  0  0
 12 28  1  0  0  0
 13 14  2  0  0  0
 13 29  1  0  0  0
 14 15  1  0  0  0
 14 17  1  0  0  0
 15 16  2  0  0  0
 15 30  1  0  0  0
 16 31  1  0  0  0
 17 18  1  0  0  0
 17 32  1  0  0  0
 18 19  1  0  0  0
 18 20  2  0  0  0
 19 33  1  0  0  0
 19 34  1  0  0  0
 19 35  1  0  0  0
M  END
> <s_m_entry_id>
52309

> <s_m_entry_name>
dock_pv.31

> <s_m_Source_Path>
/home/csk/Desktop/cluster/DUD-E-result/hdac2

> <s_m_Source_File>
dock_pv.maegz

> <i_m_Source_File_Index>
31

> <chembl_id>
CHEMBL235191

> <chembl_pref_name>
TACEDINALINE

> <i_lp_mmshare_version>
53161

> <i_f3d_flags>
0

> <r_lp_tautomer_probability>
1

> <s_lp_Force_Field>
OPLS_2005

> <r_lp_Energy>
24.237319

> <b_lp_Chiralities_Consistent>
1

> <s_lp_Variant>
CHEMBL1937_lig117-1

> <s_i_glide_gridfile>
glide-grid_3max

> <i_i_glide_lignum>
126

> <i_i_glide_rotatable_bonds>
5

> <r_i_docking_score>
-8.3835695363745

> <r_i_glide_ligand_efficiency>
-0.419178476818725

> <r_i_glide_ligand_efficiency_sa>
-1.13782544083796

> <r_i_glide_ligand_efficiency_ln>
-2.09813094632533

> <r_i_glide_gscore>
-8.3835695363745

> <r_i_glide_lipo>
-2.39649551552727

> <r_i_glide_hbond>
-0.314918193591155

> <r_i_glide_metal>
-2.3

> <r_i_glide_rewards>
-1.85772250722325

> <r_i_glide_evdw>
-22.2905254364014

> <r_i_glide_ecoul>
-8.18035125732422

> <r_i_glide_erotb>
0.985404628047784

> <r_i_glide_esite>
-0.158258987661909

> <r_i_glide_emodel>
-44.2673705709797

> <r_i_glide_energy>
-30.4708766937256

> <r_i_glide_einternal>
7.75364637374878

> <i_i_glide_confnum>
19

> <i_i_glide_posenum>
199

> <r_i_glide_eff_state_penalty>
0

> <s_user_duplicate_titles>
CHEMBL1937_lig117,399340

> <s_m_subgroup_title>
dock_pv

> <s_m_subgroupid>
dock_pv

> <b_m_subgroup_collapsed>
1

$$$$
CHEMBL1937_lig77 
                    3D
 Schrodinger Suite 2021-1.
 31 31  0  0  1  0            999 V2000
   71.3138   33.3164   -1.3790 C   0  0  0  0  0  0
   72.3506   32.4509   -1.0450 C   0  0  0  0  0  0
   72.0750   31.1775   -0.5596 C   0  0  0  0  0  0
   70.7529   30.7671   -0.4160 C   0  0  0  0  0  0
   69.6953   31.6300   -0.7381 C   0  0  0  0  0  0
   69.9914   32.9107   -1.2160 C   0  0  0  0  0  0
   68.2758   31.2305   -0.5879 C   0  0  0  0  0  0
   67.8437   30.0057   -0.2212 C   0  0  0  0  0  0
   66.4527   29.6567   -0.0817 C   0  0  0  0  0  0
   66.2180   28.7566    0.8910 N   0  0  0  0  0  0
   65.5761   30.1150   -0.8160 O   0  0  0  0  0  0
   65.1005   27.9034    0.7840 N   0  0  1  0  0  0
   63.9741   28.3722    1.5784 C   0  0  0  0  0  0
   64.1345   27.9937    3.0600 C   0  0  0  0  0  0
   62.8743   28.2798    3.8840 C   0  0  0  0  0  0
   71.5353   34.3058   -1.7517 H   0  0  0  0  0  0
   73.3772   32.7681   -1.1589 H   0  0  0  0  0  0
   72.8846   30.5093   -0.3007 H   0  0  0  0  0  0
   70.5721   29.7719   -0.0442 H   0  0  0  0  0  0
   69.1993   33.5998   -1.4708 H   0  0  0  0  0  0
   67.5463   32.0055   -0.7845 H   0  0  0  0  0  0
   68.5472   29.2184   -0.0160 H   0  0  0  0  0  0
   67.0031   28.3106    1.3473 H   0  0  0  0  0  0
   64.8668   27.8392   -0.1997 H   0  0  0  0  0  0
   63.0812   27.8783    1.1943 H   0  0  0  0  0  0
   63.8180   29.4438    1.4542 H   0  0  0  0  0  0
   64.9883   28.5150    3.4938 H   0  0  0  0  0  0
   64.3500   26.9299    3.1382 H   0  0  0  0  0  0
   63.0180   28.0143    4.9316 H   0  0  0  0  0  0
   62.0184   27.7150    3.5119 H   0  0  0  0  0  0
   62.6180   29.3338    3.8460 H   0  0  0  0  0  0
  1  2  2  0  0  0
  1  6  1  0  0  0
  1 16  1  0  0  0
  2  3  1  0  0  0
  2 17  1  0  0  0
  3  4  2  0  0  0
  3 18  1  0  0  0
  4  5  1  0  0  0
  4 19  1  0  0  0
  5  6  2  0  0  0
  5  7  1  0  0  0
  6 20  1  0  0  0
  7  8  2  0  0  0
  7 21  1  0  0  0
  8  9  1  0  0  0
  8 22  1  0  0  0
  9 10  1  0  0  0
  9 11  2  0  0  0
 10 12  1  0  0  0
 10 23  1  0  0  0
 12 13  1  0  0  0
 12 24  1  0  0  0
 13 14  1  0  0  0
 13 25  1  0  0  0
 13 26  1  0  0  0
 14 15  1  0  0  0
 14 27  1  0  0  0
 14 28  1  0  0  0
 15 29  1  0  0  0
 15 30  1  0  0  0
 15 31  1  0  0  0
M  END
> <s_m_entry_id>
52310

> <s_m_entry_name>
dock_pv.32

> <s_m_Source_Path>
/home/csk/Desktop/cluster/DUD-E-result/hdac2

> <s_m_Source_File>
dock_pv.maegz

> <i_m_Source_File_Index>
32

> <chembl_id>
CHEMBL4464225

> <chembl_pref_name>
None

> <i_lp_mmshare_version>
53161

> <i_f3d_flags>
0

> <r_lp_tautomer_probability>
1

> <s_lp_Force_Field>
OPLS_2005

> <r_lp_Energy>
9.139856

> <b_lp_Chiralities_Consistent>
1

> <s_lp_Variant>
CHEMBL1937_lig77 -1

> <s_i_glide_gridfile>
glide-grid_3max

> <i_i_glide_lignum>
85

> <i_i_glide_rotatable_bonds>
6

> <r_i_docking_score>
-8.37645306455903

> <r_i_glide_ligand_efficiency>
-0.558430204303935

> <r_i_glide_ligand_efficiency_sa>
-1.37720731128201

> <r_i_glide_ligand_efficiency_ln>
-2.25899127850781

> <r_i_glide_gscore>
-8.37645306455903

> <r_i_glide_lipo>
-2.26872607736968

> <r_i_glide_hbond>
-0.307784344618164

> <r_i_glide_metal>
-2.3

> <r_i_glide_rewards>
-2.39135290909091

> <r_i_glide_evdw>
-26.6868267059326

> <r_i_glide_ecoul>
-8.34012889862061

> <r_i_glide_erotb>
1.57677093660944

> <r_i_glide_esite>
-0.1

> <r_i_glide_emodel>
-52.9114762813287

> <r_i_glide_energy>
-35.0269556045532

> <r_i_glide_einternal>
9.20851612091064

> <i_i_glide_confnum>
15

> <i_i_glide_posenum>
397

> <r_i_glide_eff_state_penalty>
0

> <s_user_duplicate_titles>
CHEMBL1937_lig77 

> <s_m_subgroup_title>
dock_pv

> <s_m_subgroupid>
dock_pv

> <b_m_subgroup_collapsed>
1

$$$$
CHEMBL1937_lig217
                    3D
 Schrodinger Suite 2021-1.
 32 33  0  0  1  0            999 V2000
   70.4174   32.1926   -1.4817 C   0  0  0  0  0  0
   71.7322   32.6074   -1.7820 C   0  0  0  0  0  0
   72.7691   32.1319   -0.9639 C   0  0  0  0  0  0
   72.5113   31.2954    0.1121 C   0  0  0  0  0  0
   71.2046   30.9150    0.3840 C   0  0  0  0  0  0
   70.1459   31.3325   -0.4124 C   0  0  0  0  0  0
   68.7984   30.8627   -0.0392 C   0  0  0  0  0  0
   67.9839   30.1150   -0.8182 C   0  0  0  0  0  0
   66.7005   29.5814   -0.4011 C   0  0  0  0  0  0
   66.5806   29.3150    0.9111 N   0  0  0  0  0  0
   65.8180   29.3150   -1.2160 O   0  0  0  0  0  0
   65.3779   28.7689    1.3888 O   0  0  0  0  0  0
   72.0432   33.5536   -2.9026 C   0  0  0  0  0  0
   71.0938   34.4790   -3.3562 C   0  0  0  0  0  0
   71.4157   35.4007   -4.3491 C   0  0  0  0  0  0
   72.6921   35.4142   -4.8995 C   0  0  0  0  0  0
   73.6406   34.4859   -4.4906 C   0  0  0  0  0  0
   73.3145   33.5641   -3.5015 C   0  0  0  0  0  0
   73.0180   36.3484   -5.8444 O   0  0  0  0  0  0
   69.5828   32.5578   -2.0501 H   0  0  0  0  0  0
   73.7936   32.4331   -1.1207 H   0  0  0  0  0  0
   73.3209   30.9656    0.7488 H   0  0  0  0  0  0
   71.0049   30.3233    1.2619 H   0  0  0  0  0  0
   68.4850   31.1414    0.9568 H   0  0  0  0  0  0
   68.2803   29.8527   -1.8236 H   0  0  0  0  0  0
   67.3230   29.3329    1.6022 H   0  0  0  0  0  0
   65.5870   27.8402    1.5305 H   0  0  0  0  0  0
   70.1072   34.5150   -2.9209 H   0  0  0  0  0  0
   70.6773   36.1150   -4.6781 H   0  0  0  0  0  0
   74.6311   34.4825   -4.9213 H   0  0  0  0  0  0
   74.0757   32.8595   -3.2036 H   0  0  0  0  0  0
   73.9319   36.2904   -6.1306 H   0  0  0  0  0  0
  1  6  1  0  0  0
  1  2  2  0  0  0
  1 20  1  0  0  0
  2  3  1  0  0  0
  2 13  1  0  0  0
  3  4  2  0  0  0
  3 21  1  0  0  0
  4  5  1  0  0  0
  4 22  1  0  0  0
  5  6  2  0  0  0
  5 23  1  0  0  0
  6  7  1  0  0  0
  7  8  2  0  0  0
  7 24  1  0  0  0
  8  9  1  0  0  0
  8 25  1  0  0  0
  9 10  1  0  0  0
  9 11  2  0  0  0
 10 12  1  0  0  0
 10 26  1  0  0  0
 12 27  1  0  0  0
 13 14  2  0  0  0
 13 18  1  0  0  0
 14 15  1  0  0  0
 14 28  1  0  0  0
 15 16  2  0  0  0
 15 29  1  0  0  0
 16 17  1  0  0  0
 16 19  1  0  0  0
 17 18  2  0  0  0
 17 30  1  0  0  0
 18 31  1  0  0  0
 19 32  1  0  0  0
M  END
> <s_m_entry_id>
52311

> <s_m_entry_name>
dock_pv.33

> <s_m_Source_Path>
/home/csk/Desktop/cluster/DUD-E-result/hdac2

> <s_m_Source_File>
dock_pv.maegz

> <i_m_Source_File_Index>
33

> <chembl_id>
CHEMBL555906

> <chembl_pref_name>
None

> <i_lp_mmshare_version>
53161

> <i_f3d_flags>
0

> <r_lp_tautomer_probability>
0.999999999997365

> <s_lp_Force_Field>
OPLS_2005

> <r_lp_Energy>
21.330729

> <b_lp_Chiralities_Consistent>
1

> <s_lp_Variant>
CHEMBL1937_lig217-1

> <s_i_glide_gridfile>
glide-grid_3max

> <i_i_glide_lignum>
254

> <i_i_glide_rotatable_bonds>
6

> <r_i_docking_score>
-8.3457412574015

> <r_i_glide_ligand_efficiency>
-0.439249539863237

> <r_i_glide_ligand_efficiency_sa>
-1.17209419522103

> <r_i_glide_ligand_efficiency_ln>
-2.11582465883784

> <r_i_glide_gscore>
-8.3457412574015

> <r_i_glide_lipo>
-1.73943801755039

> <r_i_glide_hbond>
-0.274112480150526

> <r_i_glide_metal>
-2.3

> <r_i_glide_rewards>
-2.04358071810481

> <r_i_glide_evdw>
-25.5651245117188

> <r_i_glide_ecoul>
-10.8097524642944

> <r_i_glide_erotb>
1.08061700159589

> <r_i_glide_esite>
-0.169507947961554

> <r_i_glide_emodel>
-55.4442611753577

> <r_i_glide_energy>
-36.3748769760132

> <r_i_glide_einternal>
5.57825326919556

> <i_i_glide_confnum>
20

> <i_i_glide_posenum>
138

> <r_i_glide_eff_state_penalty>
0

> <s_user_duplicate_titles>
CHEMBL1937_lig217,554221

> <s_m_subgroup_title>
dock_pv

> <s_m_subgroupid>
dock_pv

> <b_m_subgroup_collapsed>
1

$$$$
CHEMBL1937_lig68 
                    3D
 Schrodinger Suite 2021-1.
 27 27  0  0  1  0            999 V2000
   63.5658   27.7150    2.0696 C   0  0  0  0  0  0
   64.1018   27.9801    3.3202 C   0  0  0  0  0  0
   65.3759   28.5150    3.4492 C   0  0  0  0  0  0
   66.0390   28.9682    2.3265 C   0  0  0  0  0  0
   65.4815   28.7871    1.0631 C   0  0  0  0  0  0
   64.2568   28.1147    0.9347 C   0  0  0  0  0  0
   66.1776   29.3140   -0.1548 C   0  0  0  0  0  0
   65.5669   29.3150   -1.2160 O   0  0  0  0  0  0
   67.4485   29.7441   -0.0161 N   0  0  0  0  0  0
   68.1867   30.1150   -1.1485 N   0  0  1  0  0  0
   69.1566   31.1635   -0.8619 C   0  0  0  0  0  0
   70.3252   30.6541    0.0002 C   0  0  0  0  0  0
   71.5325   31.6001   -0.0158 C   0  0  0  0  0  0
   62.6186   27.2116    1.9840 H   0  0  0  0  0  0
   63.5477   27.7154    4.2067 H   0  0  0  0  0  0
   65.8183   28.6128    4.4285 H   0  0  0  0  0  0
   66.9934   29.4580    2.4373 H   0  0  0  0  0  0
   63.8180   27.9250   -0.0362 H   0  0  0  0  0  0
   68.0245   29.4154    0.7514 H   0  0  0  0  0  0
   68.6177   29.2776   -1.5334 H   0  0  0  0  0  0
   68.6785   32.0341   -0.4087 H   0  0  0  0  0  0
   69.5572   31.4943   -1.8205 H   0  0  0  0  0  0
   70.6532   29.6817   -0.3684 H   0  0  0  0  0  0
   69.9937   30.5151    1.0301 H   0  0  0  0  0  0
   72.3297   31.2257    0.6282 H   0  0  0  0  0  0
   71.2637   32.5950    0.3376 H   0  0  0  0  0  0
   71.9436   31.7017   -1.0210 H   0  0  0  0  0  0
  1  2  2  0  0  0
  1  6  1  0  0  0
  1 14  1  0  0  0
  2  3  1  0  0  0
  2 15  1  0  0  0
  3  4  2  0  0  0
  3 16  1  0  0  0
  4  5  1  0  0  0
  4 17  1  0  0  0
  5  6  2  0  0  0
  5  7  1  0  0  0
  6 18  1  0  0  0
  7  8  2  0  0  0
  7  9  1  0  0  0
  9 10  1  0  0  0
  9 19  1  0  0  0
 10 11  1  0  0  0
 10 20  1  0  0  0
 11 12  1  0  0  0
 11 21  1  0  0  0
 11 22  1  0  0  0
 12 13  1  0  0  0
 12 23  1  0  0  0
 12 24  1  0  0  0
 13 25  1  0  0  0
 13 26  1  0  0  0
 13 27  1  0  0  0
M  END
> <s_m_entry_id>
52312

> <s_m_entry_name>
dock_pv.34

> <s_m_Source_Path>
/home/csk/Desktop/cluster/DUD-E-result/hdac2

> <s_m_Source_File>
dock_pv.maegz

> <i_m_Source_File_Index>
34

> <chembl_id>
CHEMBL4576200

> <chembl_pref_name>
None

> <i_lp_mmshare_version>
53161

> <i_f3d_flags>
0

> <r_lp_tautomer_probability>
1

> <s_lp_Force_Field>
OPLS_2005

> <r_lp_Energy>
11.200683

> <b_lp_Chiralities_Consistent>
1

> <s_lp_Variant>
CHEMBL1937_lig68 -1

> <s_i_glide_gridfile>
glide-grid_3max

> <i_i_glide_lignum>
76

> <i_i_glide_rotatable_bonds>
5

> <r_i_docking_score>
-8.29789979491388

> <r_i_glide_ligand_efficiency>
-0.638299984224145

> <r_i_glide_ligand_efficiency_sa>
-1.50085689279464

> <r_i_glide_ligand_efficiency_ln>
-2.32763469067131

> <r_i_glide_gscore>
-8.29789979491388

> <r_i_glide_lipo>
-2.19556967900589

> <r_i_glide_hbond>
-0.522959192160255

> <r_i_glide_metal>
-2.3

> <r_i_glide_rewards>
-2.19387981818182

> <r_i_glide_evdw>
-14.625205039978

> <r_i_glide_ecoul>
-11.0200986862183

> <r_i_glide_erotb>
1.48217245683647

> <r_i_glide_esite>
-0.183388507470747

> <r_i_glide_emodel>
-40.0050625849805

> <r_i_glide_energy>
-25.6453037261963

> <r_i_glide_einternal>
5.19276905059814

> <i_i_glide_confnum>
1

> <i_i_glide_posenum>
372

> <r_i_glide_eff_state_penalty>
0

> <s_user_duplicate_titles>
CHEMBL1937_lig68 

> <s_m_subgroup_title>
dock_pv

> <s_m_subgroupid>
dock_pv

> <b_m_subgroup_collapsed>
1

$$$$
CHEMBL1937_lig52 
                    3D
 Schrodinger Suite 2021-1.
 57 57  0  0  1  0            999 V2000
   67.3391   30.0252   -0.6856 C   0  0  0  0  0  0
   67.0180   29.7079    0.5663 N   0  0  0  0  0  0
   71.8982   34.7357   -3.2466 C   0  0  0  0  0  0
   66.6180   29.7150   -1.6160 O   0  0  0  0  0  0
   71.4180   33.7906   -3.8807 O   0  0  0  0  0  0
   71.9191   36.0050   -3.6900 N   0  0  0  0  0  0
   65.8963   28.9894    1.0337 C   0  0  0  0  0  0
   71.4180   36.2768   -4.9697 O   0  0  0  0  0  0
   68.6331   30.7966   -0.9685 C   0  0  0  0  0  0
   72.5439   34.5225   -1.8653 C   0  0  0  0  0  0
   64.9081   28.3511    0.2643 C   0  0  0  0  0  0
   65.8223   28.9150    2.4099 C   0  0  0  0  0  0
   72.5356   33.0711   -1.3306 C   0  0  0  0  0  0
   69.8118   30.5186   -0.0160 C   0  0  0  0  0  0
   71.1595   31.0744   -0.5175 C   0  0  0  0  0  0
   71.1520   32.5730   -0.8717 C   0  0  0  0  0  0
   63.8180   27.7528    0.8961 C   0  0  0  0  0  0
   64.7709   28.2773    3.0327 C   0  0  0  0  0  0
   63.6951   27.7990    2.2874 C   0  0  0  0  0  0
   62.4162   27.3150    2.9907 C   0  0  0  0  0  0
   61.9262   28.2082    4.1263 C   0  0  0  0  0  0
   62.6810   28.9150    4.7624 O   0  0  0  0  0  0
   60.6180   28.1150    4.3732 O   0  0  0  0  0  0
   59.9773   28.7382    5.4844 C   0  0  0  0  0  0
   60.7494   28.7590    6.8441 C   0  0  0  0  0  0
   60.0038   29.4535    7.9837 C   0  0  1  0  0  0
   59.8180   28.6205    9.0068 F   0  0  0  0  0  0
   60.6129   30.7833    8.4457 C   0  0  0  0  0  0
   61.9371   30.9150    8.3840 F   0  0  0  0  0  0
   67.7138   29.9123    1.2700 H   0  0  0  0  0  0
   72.2887   36.8217   -3.2243 H   0  0  0  0  0  0
   70.5733   36.7271   -4.8160 H   0  0  0  0  0  0
   68.3898   31.8588   -0.9727 H   0  0  0  0  0  0
   68.9529   30.5275   -1.9778 H   0  0  0  0  0  0
   73.5840   34.8383   -1.9590 H   0  0  0  0  0  0
   72.0847   35.1923   -1.1375 H   0  0  0  0  0  0
   64.9385   28.3031   -0.8115 H   0  0  0  0  0  0
   66.6083   29.3392    2.9994 H   0  0  0  0  0  0
   72.9438   32.3990   -2.0887 H   0  0  0  0  0  0
   73.2244   33.0034   -0.4864 H   0  0  0  0  0  0
   69.9201   29.4391    0.0778 H   0  0  0  0  0  0
   69.6021   30.9145    0.9794 H   0  0  0  0  0  0
   71.4700   30.5149   -1.4000 H   0  0  0  0  0  0
   71.9225   30.8832    0.2393 H   0  0  0  0  0  0
   70.8150   33.1581   -0.0160 H   0  0  0  0  0  0
   70.4261   32.7502   -1.6649 H   0  0  0  0  0  0
   63.0346   27.3151    0.2944 H   0  0  0  0  0  0
   64.7991   28.1923    4.1072 H   0  0  0  0  0  0
   61.5662   27.0809    2.3840 H   0  0  0  0  0  0
   62.6180   26.3621    3.4166 H   0  0  0  0  0  0
   59.6461   29.7150    5.1883 H   0  0  0  0  0  0
   59.0312   28.2214    5.5840 H   0  0  0  0  0  0
   61.0180   27.7404    7.1319 H   0  0  0  0  0  0
   61.7082   29.2547    6.7705 H   0  0  0  0  0  0
   59.0180   29.7150    7.6297 H   0  0  0  0  0  0
   60.2180   31.6179    7.8690 H   0  0  0  0  0  0
   60.3323   30.9150    9.4905 H   0  0  0  0  0  0
  1  2  1  0  0  0
  1  4  2  0  0  0
  1  9  1  0  0  0
  2  7  1  0  0  0
  2 30  1  0  0  0
  3 10  1  0  0  0
  3  5  2  0  0  0
  3  6  1  0  0  0
  6  8  1  0  0  0
  6 31  1  0  0  0
  7 11  2  0  0  0
  7 12  1  0  0  0
  8 32  1  0  0  0
  9 14  1  0  0  0
  9 33  1  0  0  0
  9 34  1  0  0  0
 10 13  1  0  0  0
 10 35  1  0  0  0
 10 36  1  0  0  0
 11 17  1  0  0  0
 11 37  1  0  0  0
 12 18  2  0  0  0
 12 38  1  0  0  0
 13 16  1  0  0  0
 13 39  1  0  0  0
 13 40  1  0  0  0
 14 15  1  0  0  0
 14 41  1  0  0  0
 14 42  1  0  0  0
 15 16  1  0  0  0
 15 43  1  0  0  0
 15 44  1  0  0  0
 16 45  1  0  0  0
 16 46  1  0  0  0
 17 19  2  0  0  0
 17 47  1  0  0  0
 18 19  1  0  0  0
 18 48  1  0  0  0
 19 20  1  0  0  0
 20 21  1  0  0  0
 20 49  1  0  0  0
 20 50  1  0  0  0
 21 22  2  0  0  0
 21 23  1  0  0  0
 23 24  1  0  0  0
 24 25  1  0  0  0
 24 51  1  0  0  0
 24 52  1  0  0  0
 25 26  1  0  0  0
 25 53  1  0  0  0
 25 54  1  0  0  0
 26 27  1  0  0  0
 26 28  1  0  0  0
 26 55  1  0  0  0
 28 29  1  0  0  0
 28 56  1  0  0  0
 28 57  1  0  0  0
M  END
> <s_m_entry_id>
52313

> <s_m_entry_name>
dock_pv.35

> <s_m_Source_Path>
/home/csk/Desktop/cluster/DUD-E-result/hdac2

> <s_m_Source_File>
dock_pv.maegz

> <i_m_Source_File_Index>
35

> <chembl_id>
CHEMBL4472856

> <chembl_pref_name>
None

> <i_lp_mmshare_version>
53161

> <i_f3d_flags>
0

> <r_lp_tautomer_probability>
1

> <s_lp_Force_Field>
OPLS_2005

> <r_lp_Energy>
22.649236

> <b_lp_Chiralities_Consistent>
1

> <s_lp_Variant>
CHEMBL1937_lig52 -2

> <s_i_glide_gridfile>
glide-grid_3max

> <i_i_glide_lignum>
58

> <i_i_glide_rotatable_bonds>
18

> <r_i_docking_score>
-8.28336447873511

> <r_i_glide_ligand_efficiency>
-0.285633257887418

> <r_i_glide_ligand_efficiency_sa>
-0.877555863197982

> <r_i_glide_ligand_efficiency_ln>
-1.8966804176306

> <r_i_glide_gscore>
-8.28336447873511

> <r_i_glide_lipo>
-3.25592054234462

> <r_i_glide_hbond>
-0.353959371179935

> <r_i_glide_metal>
-2.3

> <r_i_glide_rewards>
-1.05782537123207

> <r_i_glide_evdw>
-18.0254344940186

> <r_i_glide_ecoul>
-13.9304761886597

> <r_i_glide_erotb>
1.83858198674009

> <r_i_glide_esite>
-0.163398027718709

> <r_i_glide_emodel>
-38.7320262703621

> <r_i_glide_energy>
-31.9559106826782

> <r_i_glide_einternal>
14.7664556503296

> <i_i_glide_confnum>
28

> <i_i_glide_posenum>
201

> <r_i_glide_eff_state_penalty>
0

> <s_user_duplicate_titles>
CHEMBL1937_lig52 

> <s_m_subgroup_title>
dock_pv

> <s_m_subgroupid>
dock_pv

> <b_m_subgroup_collapsed>
1

$$$$
CHEMBL1937_lig356
                    3D
 Schrodinger Suite 2021-1.
 21 21  0  0  1  0            999 V2000
   66.9652   29.8068   -0.2606 C   0  0  0  0  0  0
   66.6180   29.3150    0.9465 N   0  0  0  0  0  0
   66.2180   29.7150   -1.2160 O   0  0  0  0  0  0
   65.3871   28.6484    1.0834 O   0  0  0  0  0  0
   68.2223   30.5356   -0.3906 C   0  0  0  0  0  0
   68.2831   31.8840   -0.4827 C   0  0  0  0  0  0
   69.5364   32.7027   -0.7920 C   0  0  0  0  0  0
   70.7290   31.8231   -1.2096 C   0  0  0  0  0  0
   70.7616   30.5150   -0.4160 C   0  0  0  0  0  0
   69.4625   29.7147   -0.6530 C   0  0  0  0  0  0
   67.2803   29.0931    1.6847 H   0  0  0  0  0  0
   65.6235   27.7163    1.0524 H   0  0  0  0  0  0
   67.3835   32.4571   -0.4160 H   0  0  0  0  0  0
   69.3377   33.4472   -1.5636 H   0  0  0  0  0  0
   69.7994   33.2716    0.0987 H   0  0  0  0  0  0
   70.6592   31.5927   -2.2743 H   0  0  0  0  0  0
   71.6635   32.3705   -1.0784 H   0  0  0  0  0  0
   70.8801   30.7307    0.6478 H   0  0  0  0  0  0
   71.6279   29.9207   -0.7100 H   0  0  0  0  0  0
   69.4181   28.8425   -0.0160 H   0  0  0  0  0  0
   69.4386   29.3328   -1.6747 H   0  0  0  0  0  0
  1  2  1  0  0  0
  1  3  2  0  0  0
  1  5  1  0  0  0
  2  4  1  0  0  0
  2 11  1  0  0  0
  4 12  1  0  0  0
  5  6  2  0  0  0
  5 10  1  0  0  0
  6  7  1  0  0  0
  6 13  1  0  0  0
  7  8  1  0  0  0
  7 14  1  0  0  0
  7 15  1  0  0  0
  8  9  1  0  0  0
  8 16  1  0  0  0
  8 17  1  0  0  0
  9 10  1  0  0  0
  9 18  1  0  0  0
  9 19  1  0  0  0
 10 20  1  0  0  0
 10 21  1  0  0  0
M  END
> <s_m_entry_id>
52314

> <s_m_entry_name>
dock_pv.36

> <s_m_Source_Path>
/home/csk/Desktop/cluster/DUD-E-result/hdac2

> <s_m_Source_File>
dock_pv.maegz

> <i_m_Source_File_Index>
36

> <chembl_id>
CHEMBL2333344

> <chembl_pref_name>
None

> <i_lp_mmshare_version>
53161

> <i_f3d_flags>
0

> <r_lp_tautomer_probability>
1

> <s_lp_Force_Field>
OPLS_2005

> <r_lp_Energy>
16.834659

> <b_lp_Chiralities_Consistent>
1

> <s_lp_Variant>
CHEMBL1937_lig356-1

> <s_i_glide_gridfile>
glide-grid_3max

> <i_i_glide_lignum>
402

> <i_i_glide_rotatable_bonds>
3

> <r_i_docking_score>
-8.27566780363685

> <r_i_glide_ligand_efficiency>
-0.827566780363685

> <r_i_glide_ligand_efficiency_sa>
-1.78293857856506

> <r_i_glide_ligand_efficiency_ln>
-2.50581516315582

> <r_i_glide_gscore>
-8.27566780363685

> <r_i_glide_lipo>
-1.46934590244438

> <r_i_glide_hbond>
-0.301164457041251

> <r_i_glide_metal>
-2.3

> <r_i_glide_rewards>
-2.5749919619051

> <r_i_glide_evdw>
-11.0398759841919

> <r_i_glide_ecoul>
-10.8187103271484

> <r_i_glide_erotb>
0.719633560592731

> <r_i_glide_esite>
-0.174998694556987

> <r_i_glide_emodel>
-33.1027881124924

> <r_i_glide_energy>
-21.8585863113403

> <r_i_glide_einternal>
6.34084177017212

> <i_i_glide_confnum>
3

> <i_i_glide_posenum>
225

> <r_i_glide_eff_state_penalty>
0

> <s_user_duplicate_titles>
CHEMBL1937_lig356

> <s_m_subgroup_title>
dock_pv

> <s_m_subgroupid>
dock_pv

> <b_m_subgroup_collapsed>
1

$$$$
CHEMBL1937_lig847
                    3D
 Schrodinger Suite 2021-1.
 42 44  0  0  1  0            999 V2000
   70.5529   32.2788   -2.0159 C   0  0  0  0  0  0
   69.4891   32.6249   -1.1098 O   0  0  0  0  0  0
   69.1381   31.6880   -0.0716 C   0  0  2  0  0  0
   70.3557   30.9150    0.4878 C   0  0  0  0  0  0
   71.4219   30.5150   -0.5186 C   0  0  0  0  0  0
   71.8077   31.7486   -1.3272 C   0  0  0  0  0  0
   67.8465   30.8819   -0.4160 C   0  0  0  0  0  0
   67.0248   31.3150   -1.2160 O   0  0  0  0  0  0
   67.5261   29.8468    0.3840 N   0  0  0  0  0  0
   66.2549   29.2823    0.6709 C   0  0  0  0  0  0
   65.4070   28.8167   -0.3180 C   0  0  0  0  0  0
   64.2433   28.1152   -0.0218 C   0  0  0  0  0  0
   63.9114   27.8543    1.2939 C   0  0  0  0  0  0
   64.7247   28.3265    2.3201 C   0  0  0  0  0  0
   65.8970   29.0311    1.9990 C   0  0  0  0  0  0
   64.3160   28.1150    3.7198 C   0  0  0  0  0  0
   65.2368   27.7256    4.7070 C   0  0  0  0  0  0
   64.8435   27.7150    6.0383 C   0  0  0  0  0  0
   63.5324   28.0618    6.3724 C   0  0  0  0  0  0
   62.6286   28.5103    5.4162 C   0  0  0  0  0  0
   63.0178   28.5075    4.0847 C   0  0  0  0  0  0
   63.0662   27.7150    7.5839 F   0  0  0  0  0  0
   65.8180   28.9150   -1.6160 N   0  0  0  0  0  0
   70.2180   31.5177   -2.7195 H   0  0  0  0  0  0
   70.7995   33.1632   -2.6048 H   0  0  0  0  0  0
   68.7279   32.2506    0.7698 H   0  0  0  0  0  0
   70.0488   30.1150    1.1268 H   0  0  0  0  0  0
   70.8656   31.5700    1.1837 H   0  0  0  0  0  0
   71.0331   29.7322   -1.1677 H   0  0  0  0  0  0
   72.3034   30.1152   -0.0152 H   0  0  0  0  0  0
   72.5691   31.4928   -2.0651 H   0  0  0  0  0  0
   72.2404   32.5168   -0.6839 H   0  0  0  0  0  0
   68.2342   29.5465    1.0497 H   0  0  0  0  0  0
   63.6169   27.7255   -0.8120 H   0  0  0  0  0  0
   63.0177   27.2899    1.5153 H   0  0  0  0  0  0
   66.5517   29.3698    2.7843 H   0  0  0  0  0  0
   66.2451   27.4528    4.4454 H   0  0  0  0  0  0
   65.5175   27.3500    6.7984 H   0  0  0  0  0  0
   61.6095   28.7338    5.6935 H   0  0  0  0  0  0
   62.3110   28.8288    3.3357 H   0  0  0  0  0  0
   65.3974   28.1083   -2.0980 H   0  0  0  0  0  0
   66.8330   28.8027   -1.6349 H   0  0  0  0  0  0
  1  2  1  0  0  0
  1  6  1  0  0  0
  1 24  1  0  0  0
  1 25  1  0  0  0
  2  3  1  0  0  0
  3  4  1  0  0  0
  3  7  1  0  0  0
  3 26  1  0  0  0
  4  5  1  0  0  0
  4 27  1  0  0  0
  4 28  1  0  0  0
  5  6  1  0  0  0
  5 29  1  0  0  0
  5 30  1  0  0  0
  6 31  1  0  0  0
  6 32  1  0  0  0
  7  8  2  0  0  0
  7  9  1  0  0  0
  9 10  1  0  0  0
  9 33  1  0  0  0
 10 11  1  0  0  0
 10 15  2  0  0  0
 11 12  2  0  0  0
 11 23  1  0  0  0
 12 13  1  0  0  0
 12 34  1  0  0  0
 13 14  2  0  0  0
 13 35  1  0  0  0
 14 15  1  0  0  0
 14 16  1  0  0  0
 15 36  1  0  0  0
 16 17  1  0  0  0
 16 21  2  0  0  0
 17 18  2  0  0  0
 17 37  1  0  0  0
 18 19  1  0  0  0
 18 38  1  0  0  0
 19 20  2  0  0  0
 19 22  1  0  0  0
 20 21  1  0  0  0
 20 39  1  0  0  0
 21 40  1  0  0  0
 23 41  1  0  0  0
 23 42  1  0  0  0
M  END
> <s_m_entry_id>
52315

> <s_m_entry_name>
dock_pv.37

> <s_m_Source_Path>
/home/csk/Desktop/cluster/DUD-E-result/hdac2

> <s_m_Source_File>
dock_pv.maegz

> <i_m_Source_File_Index>
37

> <chembl_id>
CHEMBL3827766

> <chembl_pref_name>
None

> <i_lp_mmshare_version>
53161

> <i_f3d_flags>
0

> <r_lp_tautomer_probability>
1

> <s_lp_Force_Field>
OPLS_2005

> <r_lp_Energy>
24.842498

> <b_lp_Chiralities_Consistent>
1

> <s_lp_Variant>
CHEMBL1937_lig847-1

> <s_i_glide_gridfile>
glide-grid_3max

> <i_i_glide_lignum>
925

> <i_i_glide_rotatable_bonds>
4

> <r_i_docking_score>
-8.20905868547247

> <r_i_glide_ligand_efficiency>
-0.356915595020542

> <r_i_glide_ligand_efficiency_sa>
-1.01502047421213

> <r_i_glide_ligand_efficiency_ln>
-1.98502482577601

> <r_i_glide_gscore>
-8.20905868547247

> <r_i_glide_lipo>
-3.19978279877128

> <r_i_glide_hbond>
-0.787470562473465

> <r_i_glide_metal>
-0.403291322160809

> <r_i_glide_rewards>
-1.75230348398582

> <r_i_glide_evdw>
14.2619752883911

> <r_i_glide_ecoul>
-22.1287956237793

> <r_i_glide_erotb>
0.752376801166151

> <r_i_glide_esite>
-0.212366740099913

> <r_i_glide_emodel>
-22.7084797064454

> <r_i_glide_energy>
-7.86682033538818

> <r_i_glide_einternal>
11.8264751434326

> <i_i_glide_confnum>
76

> <i_i_glide_posenum>
194

> <r_i_glide_eff_state_penalty>
0

> <s_user_duplicate_titles>
CHEMBL1937_lig847

> <s_m_subgroup_title>
dock_pv

> <s_m_subgroupid>
dock_pv

> <b_m_subgroup_collapsed>
1

$$$$
CHEMBL1937_lig853
                    3D
 Schrodinger Suite 2021-1.
 40 43  0  0  1  0            999 V2000
   69.3245   30.1820   -1.2438 C   0  0  1  0  0  0
   68.0549   30.6108   -0.4734 C   0  0  0  0  0  0
   67.4180   31.5935   -0.8160 O   0  0  0  0  0  0
   67.5578   29.7150    0.3840 N   0  0  0  0  0  0
   66.2336   29.3150    0.6797 C   0  0  0  0  0  0
   65.3927   28.8410   -0.3159 C   0  0  0  0  0  0
   64.2399   28.1156   -0.0235 C   0  0  0  0  0  0
   63.9049   27.8586    1.2924 C   0  0  0  0  0  0
   64.7114   28.3422    2.3193 C   0  0  0  0  0  0
   65.8749   29.0618    2.0036 C   0  0  0  0  0  0
   64.3137   28.1150    3.7171 C   0  0  0  0  0  0
   65.2442   27.7296    4.6961 C   0  0  0  0  0  0
   64.8600   27.7150    6.0294 C   0  0  0  0  0  0
   63.5508   28.0615    6.3715 C   0  0  0  0  0  0
   62.6386   28.5055    5.4227 C   0  0  0  0  0  0
   63.0180   28.5022    4.0893 C   0  0  0  0  0  0
   63.0916   27.7150    7.5840 F   0  0  0  0  0  0
   65.8180   28.9150   -1.6160 N   0  0  0  0  0  0
   70.2180   31.2907   -1.8239 C   0  0  2  0  0  0
   70.7463   30.4061   -0.7518 C   0  0  1  0  0  0
   71.0866   31.3263    0.3840 C   0  0  0  0  0  0
   71.2158   32.6172   -0.1825 O   0  0  0  0  0  0
   70.2934   32.7137   -1.2452 C   0  0  0  0  0  0
   69.1575   29.3150   -1.8788 H   0  0  0  0  0  0
   68.2431   29.1754    0.9137 H   0  0  0  0  0  0
   63.6230   27.7150   -0.8160 H   0  0  0  0  0  0
   63.0180   27.2825    1.5130 H   0  0  0  0  0  0
   66.5434   29.3820    2.7840 H   0  0  0  0  0  0
   66.2524   27.4652    4.4248 H   0  0  0  0  0  0
   65.5405   27.3523    6.7847 H   0  0  0  0  0  0
   61.6207   28.7262    5.7068 H   0  0  0  0  0  0
   62.3057   28.8217    3.3445 H   0  0  0  0  0  0
   65.3717   28.1163   -2.0899 H   0  0  0  0  0  0
   66.8250   28.7432   -1.6258 H   0  0  0  0  0  0
   70.6180   31.1888   -2.8303 H   0  0  0  0  0  0
   71.5475   29.7150   -1.0031 H   0  0  0  0  0  0
   72.0225   31.0480    0.8705 H   0  0  0  0  0  0
   70.3253   31.3150    1.1649 H   0  0  0  0  0  0
   69.3483   33.1103   -0.8780 H   0  0  0  0  0  0
   70.6585   33.4333   -1.9782 H   0  0  0  0  0  0
  1  2  1  0  0  0
  1 20  1  0  0  0
  1 19  1  0  0  0
  1 24  1  0  0  0
  2  3  2  0  0  0
  2  4  1  0  0  0
  4  5  1  0  0  0
  4 25  1  0  0  0
  5  6  1  0  0  0
  5 10  2  0  0  0
  6  7  2  0  0  0
  6 18  1  0  0  0
  7  8  1  0  0  0
  7 26  1  0  0  0
  8  9  2  0  0  0
  8 27  1  0  0  0
  9 10  1  0  0  0
  9 11  1  0  0  0
 10 28  1  0  0  0
 11 12  1  0  0  0
 11 16  2  0  0  0
 12 13  2  0  0  0
 12 29  1  0  0  0
 13 14  1  0  0  0
 13 30  1  0  0  0
 14 15  2  0  0  0
 14 17  1  0  0  0
 15 16  1  0  0  0
 15 31  1  0  0  0
 16 32  1  0  0  0
 18 33  1  0  0  0
 18 34  1  0  0  0
 19 20  1  0  0  0
 19 23  1  0  0  0
 19 35  1  0  0  0
 20 21  1  0  0  0
 20 36  1  0  0  0
 21 22  1  0  0  0
 21 37  1  0  0  0
 21 38  1  0  0  0
 22 23  1  0  0  0
 23 39  1  0  0  0
 23 40  1  0  0  0
M  END
> <s_m_entry_id>
52316

> <s_m_entry_name>
dock_pv.38

> <s_m_Source_Path>
/home/csk/Desktop/cluster/DUD-E-result/hdac2

> <s_m_Source_File>
dock_pv.maegz

> <i_m_Source_File_Index>
38

> <chembl_id>
CHEMBL3827262

> <chembl_pref_name>
None

> <i_lp_mmshare_version>
53161

> <i_f3d_flags>
0

> <r_lp_tautomer_probability>
1

> <s_lp_Force_Field>
OPLS_2005

> <r_lp_Energy>
36.713121

> <b_lp_Chiralities_Consistent>
1

> <s_lp_Variant>
CHEMBL1937_lig853-1

> <s_i_glide_gridfile>
glide-grid_3max

> <i_i_glide_lignum>
935

> <i_i_glide_rotatable_bonds>
4

> <r_i_docking_score>
-8.15441180204886

> <r_i_glide_ligand_efficiency>
-0.354539643567342

> <r_i_glide_ligand_efficiency_sa>
-1.00826358433571

> <r_i_glide_ligand_efficiency_ln>
-1.97181071385364

> <r_i_glide_gscore>
-8.15441180204886

> <r_i_glide_lipo>
-3.45855193069702

> <r_i_glide_hbond>
-0.766921994193555

> <r_i_glide_metal>
0

> <r_i_glide_rewards>
-1.58603863877993

> <r_i_glide_evdw>
4.30006408691406

> <r_i_glide_ecoul>
-20.9698085784912

> <r_i_glide_erotb>
0.760934794936323

> <r_i_glide_esite>
-0.1733659508867

> <r_i_glide_emodel>
-20.8769304999853

> <r_i_glide_energy>
-16.6697444915771

> <r_i_glide_einternal>
22.4865741729736

> <i_i_glide_confnum>
133

> <i_i_glide_posenum>
15

> <r_i_glide_eff_state_penalty>
0

> <s_user_duplicate_titles>
CHEMBL1937_lig853

> <s_m_subgroup_title>
dock_pv

> <s_m_subgroupid>
dock_pv

> <b_m_subgroup_collapsed>
1

$$$$
CHEMBL1937_lig200
                    3D
 Schrodinger Suite 2021-1.
 41 42  0  0  1  0            999 V2000
   63.8155   28.1150    2.7960 C   0  0  0  0  0  0
   63.3288   27.3552    1.7904 O   0  0  0  0  0  0
   64.0216   27.6444    0.6180 N   0  0  0  0  0  0
   64.9507   28.5201    0.9320 C   0  0  0  0  0  0
   64.8950   28.8218    2.3017 C   0  0  0  0  0  0
   63.0636   28.1151    4.0826 C   0  0  0  0  0  0
   61.6713   28.2054    4.0559 C   0  0  0  0  0  0
   60.9697   28.5019    5.2224 C   0  0  0  0  0  0
   61.6544   28.6101    6.4295 C   0  0  0  0  0  0
   63.0296   28.3956    6.4827 C   0  0  0  0  0  0
   63.7276   28.1150    5.3141 C   0  0  0  0  0  0
   65.8001   29.1394   -0.0521 C   0  0  0  0  0  0
   67.0180   29.4828    0.3840 N   0  0  0  0  0  0
   68.1214   29.9412   -0.4620 C   0  0  0  0  0  0
   68.4597   31.4274   -0.2783 C   0  0  0  0  0  0
   69.7796   31.8664   -0.9416 C   0  0  0  0  0  0
   71.0470   31.2242   -0.3230 C   0  0  0  0  0  0
   72.3677   31.8351   -0.8160 C   0  0  0  0  0  0
   73.4842   31.2027   -0.4161 N   0  0  0  0  0  0
   72.3642   32.8362   -1.5373 O   0  0  0  0  0  0
   74.7282   31.7150   -0.8149 O   0  0  0  0  0  0
   65.4339   29.3149   -1.2160 O   0  0  0  0  0  0
   60.9435   28.9150    7.5840 N   0  0  0  0  0  0
   65.5090   29.5276    2.8355 H   0  0  0  0  0  0
   61.1295   28.1150    3.1280 H   0  0  0  0  0  0
   59.8949   28.6122    5.1839 H   0  0  0  0  0  0
   63.5762   28.4433    7.4113 H   0  0  0  0  0  0
   64.8014   27.9973    5.3548 H   0  0  0  0  0  0
   67.3003   29.1708    1.3060 H   0  0  0  0  0  0
   67.9771   29.7200   -1.5219 H   0  0  0  0  0  0
   68.9842   29.3318   -0.1937 H   0  0  0  0  0  0
   68.5000   31.6643    0.7837 H   0  0  0  0  0  0
   67.6441   32.0261   -0.6852 H   0  0  0  0  0  0
   69.8410   32.9537   -0.8589 H   0  0  0  0  0  0
   69.7525   31.6447   -2.0099 H   0  0  0  0  0  0
   71.0697   30.1563   -0.5434 H   0  0  0  0  0  0
   71.0204   31.3260    0.7630 H   0  0  0  0  0  0
   73.5751   30.4009    0.1951 H   0  0  0  0  0  0
   75.1470   31.9519    0.0214 H   0  0  0  0  0  0
   61.4174   28.7168    8.4528 H   0  0  0  0  0  0
   59.9698   28.6477    7.5354 H   0  0  0  0  0  0
  1  6  1  0  0  0
  1  2  1  0  0  0
  1  5  2  0  0  0
  2  3  1  0  0  0
  3  4  2  0  0  0
  4 12  1  0  0  0
  4  5  1  0  0  0
  5 24  1  0  0  0
  6  7  2  0  0  0
  6 11  1  0  0  0
  7  8  1  0  0  0
  7 25  1  0  0  0
  8  9  2  0  0  0
  8 26  1  0  0  0
  9 10  1  0  0  0
  9 23  1  0  0  0
 10 11  2  0  0  0
 10 27  1  0  0  0
 11 28  1  0  0  0
 12 13  1  0  0  0
 12 22  2  0  0  0
 13 14  1  0  0  0
 13 29  1  0  0  0
 14 15  1  0  0  0
 14 30  1  0  0  0
 14 31  1  0  0  0
 15 16  1  0  0  0
 15 32  1  0  0  0
 15 33  1  0  0  0
 16 17  1  0  0  0
 16 34  1  0  0  0
 16 35  1  0  0  0
 17 18  1  0  0  0
 17 36  1  0  0  0
 17 37  1  0  0  0
 18 19  1  0  0  0
 18 20  2  0  0  0
 19 21  1  0  0  0
 19 38  1  0  0  0
 21 39  1  0  0  0
 23 40  1  0  0  0
 23 41  1  0  0  0
M  END
> <s_m_entry_id>
52317

> <s_m_entry_name>
dock_pv.39

> <s_m_Source_Path>
/home/csk/Desktop/cluster/DUD-E-result/hdac2

> <s_m_Source_File>
dock_pv.maegz

> <i_m_Source_File_Index>
39

> <chembl_id>
CHEMBL468841

> <chembl_pref_name>
None

> <i_lp_mmshare_version>
53161

> <i_f3d_flags>
0

> <r_lp_tautomer_probability>
1

> <s_lp_Force_Field>
OPLS_2005

> <r_lp_Energy>
17.385351

> <b_lp_Chiralities_Consistent>
1

> <s_lp_Variant>
CHEMBL1937_lig200-1

> <s_i_glide_gridfile>
glide-grid_3max

> <i_i_glide_lignum>
234

> <i_i_glide_rotatable_bonds>
10

> <r_i_docking_score>
-8.15191367628313

> <r_i_glide_ligand_efficiency>
-0.354431029403615

> <r_i_glide_ligand_efficiency_sa>
-1.00795470010226

> <r_i_glide_ligand_efficiency_ln>
-1.97120664439174

> <r_i_glide_gscore>
-8.15191367628313

> <r_i_glide_lipo>
-2.13053365116151

> <r_i_glide_hbond>
-0.271861753144659

> <r_i_glide_metal>
-2.3

> <r_i_glide_rewards>
-1.52887506218667

> <r_i_glide_evdw>
-28.9412441253662

> <r_i_glide_ecoul>
-12.8095302581787

> <r_i_glide_erotb>
1.65583573640351

> <r_i_glide_esite>
-0.207987201198686

> <r_i_glide_emodel>
-55.1388893457904

> <r_i_glide_energy>
-41.7507743835449

> <r_i_glide_einternal>
12.3858709335327

> <i_i_glide_confnum>
52

> <i_i_glide_posenum>
326

> <r_i_glide_eff_state_penalty>
0

> <s_user_duplicate_titles>
CHEMBL1937_lig200

> <s_m_subgroup_title>
dock_pv

> <s_m_subgroupid>
dock_pv

> <b_m_subgroup_collapsed>
1

$$$$
CHEMBL1937_lig452
                    3D
 Schrodinger Suite 2021-1.
 37 39  0  0  1  0            999 V2000
   66.5131   29.7051   -0.0220 C   0  0  0  0  0  0
   67.9123   30.0322   -0.1512 C   0  0  0  0  0  0
   68.3766   31.2660   -0.4543 C   0  0  0  0  0  0
   65.6692   30.1150   -0.8160 O   0  0  0  0  0  0
   66.2180   28.9150    1.0253 N   0  0  0  0  0  0
   64.8832   28.5299    1.2318 O   0  0  0  0  0  0
   69.8136   31.5933   -0.6128 C   0  0  0  0  0  0
   70.2180   32.5905   -1.5073 C   0  0  0  0  0  0
   71.5711   32.7712   -1.8143 C   0  0  0  0  0  0
   72.5393   32.0029   -1.1645 C   0  0  0  0  0  0
   72.1562   31.0713   -0.2056 C   0  0  0  0  0  0
   70.8027   30.8648    0.0563 C   0  0  0  0  0  0
   72.0645   33.9127   -3.1022 S   0  0  0  0  0  0
   73.2219   33.3406   -3.7980 O   0  0  0  0  0  0
   72.6659   36.6156   -2.8325 C   0  0  0  0  0  0
   73.4180   37.4388   -1.9399 C   0  0  0  0  0  0
   73.5330   38.8034   -2.2547 C   0  0  0  0  0  0
   72.9125   39.2620   -3.4185 C   0  0  0  0  0  0
   72.2180   38.3613   -4.2264 C   0  0  0  0  0  0
   72.0831   37.0360   -3.9619 N   0  0  0  0  0  0
   72.6571   35.3278   -2.3198 N   0  0  0  0  0  0
   73.8862   36.5897   -0.8900 C   0  0  0  0  0  0
   73.4415   35.3168   -1.1836 C   0  0  0  0  0  0
   70.8573   34.3116   -3.8362 O   0  0  0  0  0  0
   68.6013   29.2150   -0.0160 H   0  0  0  0  0  0
   67.6830   32.0861   -0.5849 H   0  0  0  0  0  0
   66.8700   28.5156    1.6906 H   0  0  0  0  0  0
   64.8658   27.6065    0.9633 H   0  0  0  0  0  0
   69.4720   33.1819   -2.0160 H   0  0  0  0  0  0
   73.5876   32.1198   -1.4020 H   0  0  0  0  0  0
   72.9085   30.4905    0.3103 H   0  0  0  0  0  0
   70.5232   30.1150    0.7798 H   0  0  0  0  0  0
   74.0853   39.4780   -1.6170 H   0  0  0  0  0  0
   72.9716   40.3050   -3.6958 H   0  0  0  0  0  0
   71.7300   38.7047   -5.1281 H   0  0  0  0  0  0
   74.5000   36.8576   -0.0424 H   0  0  0  0  0  0
   73.6256   34.3925   -0.6554 H   0  0  0  0  0  0
  1  2  1  0  0  0
  1  4  2  0  0  0
  1  5  1  0  0  0
  2  3  2  0  0  0
  2 25  1  0  0  0
  3  7  1  0  0  0
  3 26  1  0  0  0
  5  6  1  0  0  0
  5 27  1  0  0  0
  6 28  1  0  0  0
  7  8  1  0  0  0
  7 12  2  0  0  0
  8  9  2  0  0  0
  8 29  1  0  0  0
  9 10  1  0  0  0
  9 13  1  0  0  0
 10 11  2  0  0  0
 10 30  1  0  0  0
 11 12  1  0  0  0
 11 31  1  0  0  0
 12 32  1  0  0  0
 13 14  2  0  0  0
 13 21  1  0  0  0
 13 24  2  0  0  0
 15 16  1  0  0  0
 15 20  2  0  0  0
 15 21  1  0  0  0
 16 17  2  0  0  0
 16 22  1  0  0  0
 17 18  1  0  0  0
 17 33  1  0  0  0
 18 19  2  0  0  0
 18 34  1  0  0  0
 19 20  1  0  0  0
 19 35  1  0  0  0
 21 23  1  0  0  0
 22 23  2  0  0  0
 22 36  1  0  0  0
 23 37  1  0  0  0
M  END
> <s_m_entry_id>
52318

> <s_m_entry_name>
dock_pv.40

> <s_m_Source_Path>
/home/csk/Desktop/cluster/DUD-E-result/hdac2

> <s_m_Source_File>
dock_pv.maegz

> <i_m_Source_File_Index>
40

> <chembl_id>
CHEMBL3262727

> <chembl_pref_name>
None

> <i_lp_mmshare_version>
53161

> <i_f3d_flags>
0

> <r_lp_tautomer_probability>
1

> <s_lp_Force_Field>
OPLS_2005

> <r_lp_Energy>
12.866794

> <b_lp_Chiralities_Consistent>
1

> <s_lp_Variant>
CHEMBL1937_lig452-1

> <s_i_glide_gridfile>
glide-grid_3max

> <i_i_glide_lignum>
508

> <i_i_glide_rotatable_bonds>
6

> <r_i_docking_score>
-8.14903897976492

> <r_i_glide_ligand_efficiency>
-0.339543290823538

> <r_i_glide_ligand_efficiency_sa>
-0.979412329544481

> <r_i_glide_ligand_efficiency_ln>
-1.95043896289059

> <r_i_glide_gscore>
-8.14903897976492

> <r_i_glide_lipo>
-1.3910328569551

> <r_i_glide_hbond>
-0.257573583891879

> <r_i_glide_metal>
-2.3

> <r_i_glide_rewards>
-1.40134615141719

> <r_i_glide_evdw>
-32.9069786071777

> <r_i_glide_ecoul>
-12.1794347763062

> <r_i_glide_erotb>
0.804700181792437

> <r_i_glide_esite>
-0.131522422488375

> <r_i_glide_emodel>
-68.1434235266587

> <r_i_glide_energy>
-45.0864133834839

> <r_i_glide_einternal>
8.18765354156494

> <i_i_glide_confnum>
40

> <i_i_glide_posenum>
134

> <r_i_glide_eff_state_penalty>
0

> <s_user_duplicate_titles>
CHEMBL1937_lig452

> <s_m_subgroup_title>
dock_pv

> <s_m_subgroupid>
dock_pv

> <b_m_subgroup_collapsed>
1

$$$$
CHEMBL1937_lig849
                    3D
 Schrodinger Suite 2021-1.
 42 44  0  0  1  0            999 V2000
   69.5409   33.2608   -1.5562 O   0  0  0  0  0  0
   69.3054   32.8526   -0.2133 C   0  0  0  0  0  0
   69.2827   31.3220   -0.0160 C   0  0  2  0  0  0
   70.4689   30.6459   -0.7294 C   0  0  0  0  0  0
   70.8459   31.3130   -2.0596 C   0  0  0  0  0  0
   70.8235   32.8473   -2.0131 C   0  0  0  0  0  0
   67.8966   30.7398   -0.3948 C   0  0  0  0  0  0
   67.1492   31.2681   -1.2160 O   0  0  0  0  0  0
   67.5037   29.7157    0.3827 N   0  0  0  0  0  0
   66.2223   29.2201    0.6670 C   0  0  0  0  0  0
   65.3780   28.7818   -0.3268 C   0  0  0  0  0  0
   64.2188   28.0763   -0.0281 C   0  0  0  0  0  0
   63.8878   27.8155    1.2913 C   0  0  0  0  0  0
   64.6976   28.2973    2.3170 C   0  0  0  0  0  0
   65.8709   28.9865    1.9937 C   0  0  0  0  0  0
   64.3043   28.1150    3.7208 C   0  0  0  0  0  0
   65.2298   27.7248    4.7033 C   0  0  0  0  0  0
   64.8441   27.7163    6.0359 C   0  0  0  0  0  0
   63.5351   28.0657    6.3743 C   0  0  0  0  0  0
   62.6284   28.5143    5.4221 C   0  0  0  0  0  0
   63.0147   28.5154    4.0903 C   0  0  0  0  0  0
   63.0697   27.7150    7.5836 F   0  0  0  0  0  0
   65.8139   28.9149   -1.6161 N   0  0  0  0  0  0
   70.1279   33.2571    0.3792 H   0  0  0  0  0  0
   68.4116   33.3086    0.2200 H   0  0  0  0  0  0
   69.3507   31.1101    1.0528 H   0  0  0  0  0  0
   70.3224   29.5672   -0.8140 H   0  0  0  0  0  0
   71.3158   30.6525   -0.0409 H   0  0  0  0  0  0
   70.1508   30.9585   -2.8167 H   0  0  0  0  0  0
   71.8202   30.9617   -2.3901 H   0  0  0  0  0  0
   70.9949   33.2581   -3.0085 H   0  0  0  0  0  0
   71.6199   33.2378   -1.3760 H   0  0  0  0  0  0
   68.2014   29.3704    1.0416 H   0  0  0  0  0  0
   63.5935   27.6826   -0.8171 H   0  0  0  0  0  0
   63.0031   27.2427    1.5189 H   0  0  0  0  0  0
   66.5361   29.3194    2.7722 H   0  0  0  0  0  0
   66.2346   27.4426    4.4385 H   0  0  0  0  0  0
   65.5212   27.3468    6.7897 H   0  0  0  0  0  0
   61.6100   28.7371    5.7021 H   0  0  0  0  0  0
   62.3051   28.8341    3.3427 H   0  0  0  0  0  0
   65.4435   28.0933   -2.1149 H   0  0  0  0  0  0
   66.8321   28.8469   -1.6095 H   0  0  0  0  0  0
  1  2  1  0  0  0
  1  6  1  0  0  0
  2  3  1  0  0  0
  2 24  1  0  0  0
  2 25  1  0  0  0
  3  4  1  0  0  0
  3  7  1  0  0  0
  3 26  1  0  0  0
  4  5  1  0  0  0
  4 27  1  0  0  0
  4 28  1  0  0  0
  5  6  1  0  0  0
  5 29  1  0  0  0
  5 30  1  0  0  0
  6 31  1  0  0  0
  6 32  1  0  0  0
  7  8  2  0  0  0
  7  9  1  0  0  0
  9 10  1  0  0  0
  9 33  1  0  0  0
 10 11  1  0  0  0
 10 15  2  0  0  0
 11 12  2  0  0  0
 11 23  1  0  0  0
 12 13  1  0  0  0
 12 34  1  0  0  0
 13 14  2  0  0  0
 13 35  1  0  0  0
 14 15  1  0  0  0
 14 16  1  0  0  0
 15 36  1  0  0  0
 16 17  1  0  0  0
 16 21  2  0  0  0
 17 18  2  0  0  0
 17 37  1  0  0  0
 18 19  1  0  0  0
 18 38  1  0  0  0
 19 20  2  0  0  0
 19 22  1  0  0  0
 20 21  1  0  0  0
 20 39  1  0  0  0
 21 40  1  0  0  0
 23 41  1  0  0  0
 23 42  1  0  0  0
M  END
> <s_m_entry_id>
52319

> <s_m_entry_name>
dock_pv.41

> <s_m_Source_Path>
/home/csk/Desktop/cluster/DUD-E-result/hdac2

> <s_m_Source_File>
dock_pv.maegz

> <i_m_Source_File_Index>
41

> <chembl_id>
CHEMBL3827412

> <chembl_pref_name>
None

> <i_lp_mmshare_version>
53161

> <i_f3d_flags>
0

> <r_lp_tautomer_probability>
1

> <s_lp_Force_Field>
OPLS_2005

> <r_lp_Energy>
26.100431

> <b_lp_Chiralities_Consistent>
1

> <s_lp_Variant>
CHEMBL1937_lig849-1

> <s_i_glide_gridfile>
glide-grid_3max

> <i_i_glide_lignum>
927

> <i_i_glide_rotatable_bonds>
4

> <r_i_docking_score>
-8.14289221971321

> <r_i_glide_ligand_efficiency>
-0.354038792161444

> <r_i_glide_ligand_efficiency_sa>
-1.00683922956215

> <r_i_glide_ligand_efficiency_ln>
-1.96902517439108

> <r_i_glide_gscore>
-8.14289221971321

> <r_i_glide_lipo>
-3.27241901556389

> <r_i_glide_hbond>
-0.744228588646227

> <r_i_glide_metal>
0

> <r_i_glide_rewards>
-1.88616299585185

> <r_i_glide_evdw>
13.1649484634399

> <r_i_glide_ecoul>
-23.0290546417236

> <r_i_glide_erotb>
0.752376801166151

> <r_i_glide_esite>
-0.196347647730848

> <r_i_glide_emodel>
-20.377055477627

> <r_i_glide_energy>
-9.86410617828369

> <r_i_glide_einternal>
9.42122077941895

> <i_i_glide_confnum>
105

> <i_i_glide_posenum>
72

> <r_i_glide_eff_state_penalty>
0

> <s_user_duplicate_titles>
CHEMBL1937_lig849

> <s_m_subgroup_title>
dock_pv

> <s_m_subgroupid>
dock_pv

> <b_m_subgroup_collapsed>
1

$$$$
CHEMBL1937_lig828
                    3D
 Schrodinger Suite 2021-1.
 41 42  0  0  1  0            999 V2000
   64.5593   28.1150    0.3250 N   0  0  0  0  0  0
   63.8948   27.7565    1.4275 N   0  0  0  0  0  0
   64.6180   28.2514    2.4072 C   0  0  0  0  0  0
   65.7548   28.9150    1.9430 C   0  0  0  0  0  0
   65.6957   28.8477    0.5699 C   0  0  0  0  0  0
   66.5394   29.3996   -0.4366 C   0  0  0  0  0  0
   66.2180   29.3150   -1.6160 O   0  0  0  0  0  0
   67.6580   30.0101   -0.0160 N   0  0  0  0  0  0
   68.6375   30.6736   -0.8706 C   0  0  0  0  0  0
   70.0713   30.5276   -0.3384 C   0  0  0  0  0  0
   71.1237   31.3591   -1.1001 C   0  0  0  0  0  0
   70.8977   32.8854   -1.0299 C   0  0  0  0  0  0
   72.1334   33.7296   -1.4110 C   0  0  0  0  0  0
   72.6468   33.5559   -2.8537 C   0  0  0  0  0  0
   71.4180   34.1151   -4.0667 S   0  0  0  0  0  0
   64.2629   28.1150    3.8259 C   0  0  0  0  0  0
   62.9965   28.4918    4.2927 C   0  0  0  0  0  0
   62.7590   28.5150    5.6685 C   0  0  0  0  0  0
   65.2384   27.7150    4.7591 C   0  0  0  0  0  0
   65.0177   27.7150    6.0930 N   0  0  0  0  0  0
   63.7920   28.1150    6.5217 C   0  0  0  0  0  0
   64.2471   27.8416   -0.5984 H   0  0  0  0  0  0
   66.5143   29.3958    2.5402 H   0  0  0  0  0  0
   67.9506   29.8427    0.9386 H   0  0  0  0  0  0
   68.3628   31.7267   -0.9334 H   0  0  0  0  0  0
   68.6180   30.3025   -1.8978 H   0  0  0  0  0  0
   70.3531   29.4759   -0.4074 H   0  0  0  0  0  0
   70.1058   30.7876    0.7216 H   0  0  0  0  0  0
   71.1579   31.0402   -2.1427 H   0  0  0  0  0  0
   72.1047   31.1209   -0.6849 H   0  0  0  0  0  0
   70.6070   33.1563   -0.0160 H   0  0  0  0  0  0
   70.0512   33.1653   -1.6575 H   0  0  0  0  0  0
   72.9455   33.4925   -0.7217 H   0  0  0  0  0  0
   71.9096   34.7835   -1.2393 H   0  0  0  0  0  0
   72.8979   32.5150   -3.0520 H   0  0  0  0  0  0
   73.5618   34.1312   -2.9996 H   0  0  0  0  0  0
   71.4850   35.4131   -3.7545 H   0  0  0  0  0  0
   62.2257   28.7987    3.6007 H   0  0  0  0  0  0
   61.7950   28.8002    6.0625 H   0  0  0  0  0  0
   66.2285   27.4342    4.4429 H   0  0  0  0  0  0
   63.6418   28.0888    7.5840 H   0  0  0  0  0  0
  1  2  1  0  0  0
  1  5  1  0  0  0
  1 22  1  0  0  0
  2  3  2  0  0  0
  3  4  1  0  0  0
  3 16  1  0  0  0
  4  5  2  0  0  0
  4 23  1  0  0  0
  5  6  1  0  0  0
  6  7  2  0  0  0
  6  8  1  0  0  0
  8  9  1  0  0  0
  8 24  1  0  0  0
  9 10  1  0  0  0
  9 25  1  0  0  0
  9 26  1  0  0  0
 10 11  1  0  0  0
 10 27  1  0  0  0
 10 28  1  0  0  0
 11 12  1  0  0  0
 11 29  1  0  0  0
 11 30  1  0  0  0
 12 13  1  0  0  0
 12 31  1  0  0  0
 12 32  1  0  0  0
 13 14  1  0  0  0
 13 33  1  0  0  0
 13 34  1  0  0  0
 14 15  1  0  0  0
 14 35  1  0  0  0
 14 36  1  0  0  0
 15 37  1  0  0  0
 16 17  2  0  0  0
 16 19  1  0  0  0
 17 18  1  0  0  0
 17 38  1  0  0  0
 18 21  2  0  0  0
 18 39  1  0  0  0
 19 20  2  0  0  0
 19 40  1  0  0  0
 20 21  1  0  0  0
 21 41  1  0  0  0
M  END
> <s_m_entry_id>
52320

> <s_m_entry_name>
dock_pv.42

> <s_m_Source_Path>
/home/csk/Desktop/cluster/DUD-E-result/hdac2

> <s_m_Source_File>
dock_pv.maegz

> <i_m_Source_File_Index>
42

> <chembl_id>
CHEMBL3758882

> <chembl_pref_name>
None

> <i_lp_mmshare_version>
53161

> <i_f3d_flags>
0

> <r_lp_tautomer_probability>
0.5

> <s_lp_Force_Field>
OPLS_2005

> <r_lp_Energy>
11.168904

> <b_lp_Chiralities_Consistent>
1

> <s_lp_Variant>
CHEMBL1937_lig828-1

> <s_i_glide_gridfile>
glide-grid_3max

> <i_i_glide_lignum>
902

> <i_i_glide_rotatable_bonds>
10

> <r_i_docking_score>
-8.13106295871067

> <r_i_glide_ligand_efficiency>
-0.387193474224318

> <r_i_glide_ligand_efficiency_sa>
-1.06823743589038

> <r_i_glide_ligand_efficiency_ln>
-2.01038888618145

> <r_i_glide_gscore>
-8.13106295871067

> <r_i_glide_lipo>
-2.92505900154407

> <r_i_glide_hbond>
-0.269147924777821

> <r_i_glide_metal>
-2.3

> <r_i_glide_rewards>
-1.67260360814704

> <r_i_glide_evdw>
-22.4281482696533

> <r_i_glide_ecoul>
-9.67180728912354

> <r_i_glide_erotb>
1.79111735436598

> <r_i_glide_esite>
-0.183191271756533

> <r_i_glide_emodel>
-44.1363054818122

> <r_i_glide_energy>
-32.0999555587769

> <r_i_glide_einternal>
8.43400955200195

> <i_i_glide_confnum>
189

> <i_i_glide_posenum>
110

> <r_i_glide_eff_state_penalty>
0

> <s_user_duplicate_titles>
CHEMBL1937_lig828,CHEMBL1937_lig828

> <s_m_subgroup_title>
dock_pv

> <s_m_subgroupid>
dock_pv

> <b_m_subgroup_collapsed>
1

$$$$
CHEMBL1937_lig201
                    3D
 Schrodinger Suite 2021-1.
 47 48  0  0  1  0            999 V2000
   64.1658   28.2438    3.1411 C   0  0  0  0  0  0
   65.4421   28.4440    3.5497 O   0  0  0  0  0  0
   66.2174   28.8312    2.4709 N   0  0  0  0  0  0
   65.4411   28.8435    1.4153 C   0  0  0  0  0  0
   64.1542   28.4142    1.7677 C   0  0  0  0  0  0
   63.1540   28.1157    4.2348 C   0  0  0  0  0  0
   61.7809   28.1988    4.0003 C   0  0  0  0  0  0
   60.9162   28.4956    5.0607 C   0  0  0  0  0  0
   61.4190   28.5943    6.3598 C   0  0  0  0  0  0
   62.7672   28.3765    6.6051 C   0  0  0  0  0  0
   63.6239   28.1150    5.5549 C   0  0  0  0  0  0
   65.8618   29.3154    0.1166 C   0  0  0  0  0  0
   67.1494   29.7154    0.0421 N   0  0  0  0  0  0
   67.7726   30.2850   -1.1335 C   0  0  0  0  0  0
   69.3112   30.2858   -1.1371 C   0  0  0  0  0  0
   69.9426   31.6118   -0.6643 C   0  0  0  0  0  0
   71.3211   31.8737   -1.3041 C   0  0  0  0  0  0
   71.7834   33.3420   -1.1692 C   0  0  0  0  0  0
   65.0691   29.4522   -0.8160 O   0  0  0  0  0  0
   72.9438   33.7435   -2.1144 C   0  0  0  0  0  0
   72.6124   33.7232   -3.6193 C   0  0  0  0  0  0
   73.6684   33.7140   -4.4507 N   0  0  0  0  0  0
   71.4427   33.7202   -4.0143 O   0  0  0  0  0  0
   73.4163   33.8012   -5.8256 O   0  0  0  0  0  0
   60.5743   28.9188    7.4175 N   0  0  0  0  0  0
   63.3054   28.3771    1.1074 H   0  0  0  0  0  0
   61.3917   28.1149    2.9976 H   0  0  0  0  0  0
   59.8585   28.6142    4.8712 H   0  0  0  0  0  0
   63.1936   28.3955    7.5835 H   0  0  0  0  0  0
   64.6775   28.0125    5.7767 H   0  0  0  0  0  0
   67.7607   29.5061    0.8261 H   0  0  0  0  0  0
   67.3841   31.2986   -1.2333 H   0  0  0  0  0  0
   67.4521   29.7163   -2.0059 H   0  0  0  0  0  0
   69.6152   30.1113   -2.1703 H   0  0  0  0  0  0
   69.7113   29.4403   -0.5747 H   0  0  0  0  0  0
   70.0131   31.6284    0.4248 H   0  0  0  0  0  0
   69.2840   32.4404   -0.9314 H   0  0  0  0  0  0
   71.2658   31.6171   -2.3623 H   0  0  0  0  0  0
   72.0668   31.2010   -0.8776 H   0  0  0  0  0  0
   72.0832   33.5210   -0.1353 H   0  0  0  0  0  0
   70.9453   34.0170   -1.3469 H   0  0  0  0  0  0
   73.8101   33.1091   -1.9171 H   0  0  0  0  0  0
   73.2508   34.7624   -1.8722 H   0  0  0  0  0  0
   74.6151   33.9702   -4.2048 H   0  0  0  0  0  0
   72.5157   34.1436   -5.8584 H   0  0  0  0  0  0
   60.9650   28.7431    8.3313 H   0  0  0  0  0  0
   59.6240   28.6125    7.2633 H   0  0  0  0  0  0
  1  5  2  0  0  0
  1  6  1  0  0  0
  1  2  1  0  0  0
  2  3  1  0  0  0
  3  4  2  0  0  0
  4 12  1  0  0  0
  4  5  1  0  0  0
  5 26  1  0  0  0
  6  7  2  0  0  0
  6 11  1  0  0  0
  7  8  1  0  0  0
  7 27  1  0  0  0
  8  9  2  0  0  0
  8 28  1  0  0  0
  9 10  1  0  0  0
  9 25  1  0  0  0
 10 11  2  0  0  0
 10 29  1  0  0  0
 11 30  1  0  0  0
 12 13  1  0  0  0
 12 19  2  0  0  0
 13 14  1  0  0  0
 13 31  1  0  0  0
 14 15  1  0  0  0
 14 32  1  0  0  0
 14 33  1  0  0  0
 15 16  1  0  0  0
 15 34  1  0  0  0
 15 35  1  0  0  0
 16 17  1  0  0  0
 16 36  1  0  0  0
 16 37  1  0  0  0
 17 18  1  0  0  0
 17 38  1  0  0  0
 17 39  1  0  0  0
 18 20  1  0  0  0
 18 40  1  0  0  0
 18 41  1  0  0  0
 20 21  1  0  0  0
 20 42  1  0  0  0
 20 43  1  0  0  0
 21 22  1  0  0  0
 21 23  2  0  0  0
 22 24  1  0  0  0
 22 44  1  0  0  0
 24 45  1  0  0  0
 25 46  1  0  0  0
 25 47  1  0  0  0
M  END
> <s_m_entry_id>
52321

> <s_m_entry_name>
dock_pv.43

> <s_m_Source_Path>
/home/csk/Desktop/cluster/DUD-E-result/hdac2

> <s_m_Source_File>
dock_pv.maegz

> <i_m_Source_File_Index>
43

> <chembl_id>
CHEMBL467793

> <chembl_pref_name>
None

> <i_lp_mmshare_version>
53161

> <i_f3d_flags>
0

> <r_lp_tautomer_probability>
1

> <s_lp_Force_Field>
OPLS_2005

> <r_lp_Energy>
17.042325

> <b_lp_Chiralities_Consistent>
1

> <s_lp_Variant>
CHEMBL1937_lig201-1

> <s_i_glide_gridfile>
glide-grid_3max

> <i_i_glide_lignum>
235

> <i_i_glide_rotatable_bonds>
12

> <r_i_docking_score>
-8.12320740112736

> <r_i_glide_ligand_efficiency>
-0.324928296045095

> <r_i_glide_ligand_efficiency_sa>
-0.950096100263724

> <r_i_glide_ligand_efficiency_ln>
-1.92544358694917

> <r_i_glide_gscore>
-8.12320740112736

> <r_i_glide_lipo>
-2.31163914572615

> <r_i_glide_hbond>
-0.634803833789715

> <r_i_glide_metal>
-2.2182828529135

> <r_i_glide_rewards>
-1.32215033130929

> <r_i_glide_evdw>
-29.8850803375244

> <r_i_glide_ecoul>
-11.0754327774048

> <r_i_glide_erotb>
1.74300668023679

> <r_i_glide_esite>
-0.223768984138554

> <r_i_glide_emodel>
-45.7838557393497

> <r_i_glide_energy>
-40.9605131149292

> <r_i_glide_einternal>
8.36669063568115

> <i_i_glide_confnum>
42

> <i_i_glide_posenum>
133

> <r_i_glide_eff_state_penalty>
0

> <s_user_duplicate_titles>
CHEMBL1937_lig201,488395

> <s_m_subgroup_title>
dock_pv

> <s_m_subgroupid>
dock_pv

> <b_m_subgroup_collapsed>
1

$$$$
CHEMBL1937_lig542
                    3D
 Schrodinger Suite 2021-1.
 40 42  0  0  1  0            999 V2000
   64.9240   29.0097   -0.4461 C   0  0  0  0  0  0
   73.1763   34.8331   -1.5295 O   0  0  0  0  0  0
   61.6862   28.5160    6.4079 C   0  0  0  0  0  0
   69.6565   29.9102   -0.8139 C   0  0  0  0  0  0
   63.3218   28.1156    4.1662 C   0  0  0  0  0  0
   64.8460   28.6672    1.0472 C   0  0  0  0  0  0
   65.5104   28.5151    3.1121 N   0  0  0  0  0  0
   67.1943   29.6597   -0.8892 C   0  0  0  0  0  0
   68.4158   30.5513   -0.7943 C   0  0  0  0  0  0
   70.8011   32.0329   -0.8556 C   0  0  0  0  0  0
   61.9302   28.1874    4.0243 C   0  0  0  0  0  0
   72.0962   32.8114   -0.9514 C   0  0  0  0  0  0
   63.0500   28.3104    6.5874 C   0  0  0  0  0  0
   65.9296   28.8630    1.8311 O   0  0  0  0  0  0
   69.5511   32.6578   -0.8139 C   0  0  0  0  0  0
   65.8194   30.1363   -0.8009 N   0  0  2  0  0  0
   64.2373   28.2097    2.9627 C   0  0  0  0  0  0
   63.8179   28.1849    1.7089 N   0  0  0  0  0  0
   61.1214   28.4407    5.1347 C   0  0  0  0  0  0
   71.9991   34.0863   -1.3764 N   0  0  0  0  0  0
   68.3682   31.9342   -0.7513 C   0  0  0  0  0  0
   63.8573   28.1151    5.4704 C   0  0  0  0  0  0
   70.8392   30.6390   -0.8171 C   0  0  0  0  0  0
   73.1684   32.2673   -0.6780 O   0  0  0  0  0  0
   60.9101   28.7853    7.4832 F   0  0  0  0  0  0
   63.9263   29.2628   -0.7976 H   0  0  0  0  0  0
   65.1964   28.1152   -1.0064 H   0  0  0  0  0  0
   73.2083   35.3820   -0.7410 H   0  0  0  0  0  0
   69.7129   28.8339   -0.8262 H   0  0  0  0  0  0
   67.2765   29.3148   -1.9136 H   0  0  0  0  0  0
   67.3618   28.9150   -0.1327 H   0  0  0  0  0  0
   61.4731   28.1154    3.0507 H   0  0  0  0  0  0
   63.4863   28.3135    7.5813 H   0  0  0  0  0  0
   69.4657   33.7162   -0.8333 H   0  0  0  0  0  0
   65.8158   30.7933   -0.0158 H   0  0  0  0  0  0
   60.0509   28.5329    5.0153 H   0  0  0  0  0  0
   71.1664   34.6003   -1.6185 H   0  0  0  0  0  0
   67.4210   32.4471   -0.7374 H   0  0  0  0  0  0
   64.9220   28.0134    5.6227 H   0  0  0  0  0  0
   71.7806   30.1087   -0.8275 H   0  0  0  0  0  0
  1  6  1  0  0  0
  1 16  1  0  0  0
  1 26  1  0  0  0
  1 27  1  0  0  0
  2 20  1  0  0  0
  2 28  1  0  0  0
  3 19  1  0  0  0
  3 13  2  0  0  0
  3 25  1  0  0  0
  4 23  1  0  0  0
  4  9  2  0  0  0
  4 29  1  0  0  0
  5 22  2  0  0  0
  5 17  1  0  0  0
  5 11  1  0  0  0
  6 14  1  0  0  0
  6 18  2  0  0  0
  7 14  1  0  0  0
  7 17  2  0  0  0
  8  9  1  0  0  0
  8 16  1  0  0  0
  8 30  1  0  0  0
  8 31  1  0  0  0
  9 21  1  0  0  0
 10 12  1  0  0  0
 10 23  2  0  0  0
 10 15  1  0  0  0
 11 19  2  0  0  0
 11 32  1  0  0  0
 12 24  2  0  0  0
 12 20  1  0  0  0
 13 22  1  0  0  0
 13 33  1  0  0  0
 15 21  2  0  0  0
 15 34  1  0  0  0
 16 35  1  0  0  0
 17 18  1  0  0  0
 19 36  1  0  0  0
 20 37  1  0  0  0
 21 38  1  0  0  0
 22 39  1  0  0  0
 23 40  1  0  0  0
M  END
> <s_m_entry_id>
52322

> <s_m_entry_name>
dock_pv.44

> <s_m_Source_Path>
/home/csk/Desktop/cluster/DUD-E-result/hdac2

> <s_m_Source_File>
dock_pv.maegz

> <i_m_Source_File_Index>
44

> <chembl_id>
CHEMBL3421753

> <chembl_pref_name>
None

> <i_lp_mmshare_version>
53161

> <i_f3d_flags>
0

> <r_lp_tautomer_probability>
1

> <s_lp_Force_Field>
OPLS_2005

> <r_lp_Energy>
30.424535

> <b_lp_Chiralities_Consistent>
1

> <s_lp_Variant>
CHEMBL1937_lig542-1

> <s_i_glide_gridfile>
glide-grid_3max

> <i_i_glide_lignum>
599

> <i_i_glide_rotatable_bonds>
8

> <r_i_docking_score>
-8.09597752627744

> <r_i_glide_ligand_efficiency>
-0.323839101051098

> <r_i_glide_ligand_efficiency_sa>
-0.946911274784322

> <r_i_glide_ligand_efficiency_ln>
-1.91898929059624

> <r_i_glide_gscore>
-8.09597752627744

> <r_i_glide_lipo>
-2.3153728071969

> <r_i_glide_hbond>
-0.32

> <r_i_glide_metal>
-2.3

> <r_i_glide_rewards>
-1.43339414840905

> <r_i_glide_evdw>
-20.8634815216064

> <r_i_glide_ecoul>
-11.7191476821899

> <r_i_glide_erotb>
1.13262296972189

> <r_i_glide_esite>
-0.0587873119845748

> <r_i_glide_emodel>
-35.8466263691451

> <r_i_glide_energy>
-32.5826292037964

> <r_i_glide_einternal>
6.12447881698608

> <i_i_glide_confnum>
90

> <i_i_glide_posenum>
67

> <r_i_glide_eff_state_penalty>
0

> <s_user_duplicate_titles>
CHEMBL1937_lig542

> <s_m_subgroup_title>
dock_pv

> <s_m_subgroupid>
dock_pv

> <b_m_subgroup_collapsed>
1

$$$$
CHEMBL1937_lig71 
                    3D
 Schrodinger Suite 2021-1.
 46 48  0  0  1  0            999 V2000
   73.4180   34.8332   -4.9923 C   0  0  0  0  0  0
   74.7476   34.4340   -5.1367 C   0  0  0  0  0  0
   75.3258   33.5108   -4.2644 C   0  0  0  0  0  0
   74.6065   32.9305   -3.2160 C   0  0  0  0  0  0
   72.6692   34.2714   -3.9493 C   0  0  0  0  0  0
   73.2645   33.3150   -3.0868 C   0  0  0  0  0  0
   72.2400   32.9331   -2.2394 N   0  0  0  0  0  0
   71.1557   33.7388   -2.5675 C   0  0  0  0  0  0
   71.3692   34.5112   -3.6015 N   0  0  0  0  0  0
   69.8314   33.7208   -1.8315 C   0  0  0  0  0  0
   72.3284   31.9133   -1.1818 C   0  0  0  0  0  0
   71.0077   31.2150   -0.8765 C   0  0  0  0  0  0
   70.2670   30.6311   -1.8884 C   0  0  0  0  0  0
   69.0180   30.1150   -1.6407 C   0  0  0  0  0  0
   68.3968   30.2414   -0.4160 C   0  0  0  0  0  0
   69.1312   30.8578    0.5960 C   0  0  0  0  0  0
   70.4460   31.2771    0.3840 C   0  0  0  0  0  0
   66.9819   29.7235   -0.2480 C   0  0  0  0  0  0
   66.6180   29.3150    0.9788 N   0  0  0  0  0  0
   66.2180   29.7150   -1.2160 O   0  0  0  0  0  0
   65.4634   28.5409    1.1432 N   0  0  2  0  0  0
   64.8090   28.9066    2.3840 C   0  0  0  0  0  0
   63.6721   27.9168    2.6567 C   0  0  0  0  0  0
   62.8559   28.2882    3.9006 C   0  0  0  0  0  0
   72.9796   35.5586   -5.6616 H   0  0  0  0  0  0
   75.3462   34.8549   -5.9326 H   0  0  0  0  0  0
   76.3616   33.2365   -4.4063 H   0  0  0  0  0  0
   75.0647   32.2098   -2.5539 H   0  0  0  0  0  0
   69.1535   34.5150   -2.1068 H   0  0  0  0  0  0
   69.2552   32.8362   -2.0160 H   0  0  0  0  0  0
   69.9684   33.7150   -0.7544 H   0  0  0  0  0  0
   72.7309   32.3990   -0.2913 H   0  0  0  0  0  0
   73.0589   31.1594   -1.4792 H   0  0  0  0  0  0
   70.6420   30.6001   -2.8952 H   0  0  0  0  0  0
   68.5092   29.6366   -2.4544 H   0  0  0  0  0  0
   68.7141   30.9150    1.5840 H   0  0  0  0  0  0
   71.0241   31.6985    1.1840 H   0  0  0  0  0  0
   67.3435   29.0875    1.6508 H   0  0  0  0  0  0
   65.7492   27.5699    1.1627 H   0  0  0  0  0  0
   64.4096   29.9167    2.2945 H   0  0  0  0  0  0
   65.5120   28.8925    3.2193 H   0  0  0  0  0  0
   64.0805   26.9150    2.7840 H   0  0  0  0  0  0
   63.0180   27.8722    1.7873 H   0  0  0  0  0  0
   61.9327   27.7150    3.9604 H   0  0  0  0  0  0
   62.5695   29.3344    3.8811 H   0  0  0  0  0  0
   63.4227   28.1150    4.8161 H   0  0  0  0  0  0
  1  5  1  0  0  0
  1  2  2  0  0  0
  1 25  1  0  0  0
  2  3  1  0  0  0
  2 26  1  0  0  0
  3  4  2  0  0  0
  3 27  1  0  0  0
  4  6  1  0  0  0
  4 28  1  0  0  0
  5  6  2  0  0  0
  5  9  1  0  0  0
  6  7  1  0  0  0
  7  8  1  0  0  0
  7 11  1  0  0  0
  8  9  2  0  0  0
  8 10  1  0  0  0
 10 29  1  0  0  0
 10 30  1  0  0  0
 10 31  1  0  0  0
 11 12  1  0  0  0
 11 32  1  0  0  0
 11 33  1  0  0  0
 12 13  2  0  0  0
 12 17  1  0  0  0
 13 14  1  0  0  0
 13 34  1  0  0  0
 14 15  2  0  0  0
 14 35  1  0  0  0
 15 16  1  0  0  0
 15 18  1  0  0  0
 16 17  2  0  0  0
 16 36  1  0  0  0
 17 37  1  0  0  0
 18 19  1  0  0  0
 18 20  2  0  0  0
 19 21  1  0  0  0
 19 38  1  0  0  0
 21 22  1  0  0  0
 21 39  1  0  0  0
 22 23  1  0  0  0
 22 40  1  0  0  0
 22 41  1  0  0  0
 23 24  1  0  0  0
 23 42  1  0  0  0
 23 43  1  0  0  0
 24 44  1  0  0  0
 24 45  1  0  0  0
 24 46  1  0  0  0
M  END
> <s_m_entry_id>
52323

> <s_m_entry_name>
dock_pv.45

> <s_m_Source_Path>
/home/csk/Desktop/cluster/DUD-E-result/hdac2

> <s_m_Source_File>
dock_pv.maegz

> <i_m_Source_File_Index>
45

> <chembl_id>
CHEMBL4465131

> <chembl_pref_name>
None

> <i_lp_mmshare_version>
53161

> <i_f3d_flags>
0

> <r_lp_tautomer_probability>
1

> <s_lp_Force_Field>
OPLS_2005

> <r_lp_Energy>
17.134615

> <b_lp_Chiralities_Consistent>
1

> <s_lp_Variant>
CHEMBL1937_lig71 -1

> <s_i_glide_gridfile>
glide-grid_3max

> <i_i_glide_lignum>
79

> <i_i_glide_rotatable_bonds>
7

> <r_i_docking_score>
-8.08176455601221

> <r_i_glide_ligand_efficiency>
-0.336740189833842

> <r_i_glide_ligand_efficiency_sa>
-0.971326787157211

> <r_i_glide_ligand_efficiency_ln>
-1.93433710626442

> <r_i_glide_gscore>
-8.08176455601221

> <r_i_glide_lipo>
-2.39621448489365

> <r_i_glide_hbond>
-0.32

> <r_i_glide_metal>
-2.3

> <r_i_glide_rewards>
-1.53588059090909

> <r_i_glide_evdw>
-13.0831270217896

> <r_i_glide_ecoul>
-11.8630275726318

> <r_i_glide_erotb>
1.07941503676531

> <r_i_glide_esite>
-0.175474029990524

> <r_i_glide_emodel>
-30.4494847931863

> <r_i_glide_energy>
-24.9461545944214

> <r_i_glide_einternal>
11.666579246521

> <i_i_glide_confnum>
94

> <i_i_glide_posenum>
236

> <r_i_glide_eff_state_penalty>
0

> <s_user_duplicate_titles>
CHEMBL1937_lig71 

> <s_m_subgroup_title>
dock_pv

> <s_m_subgroupid>
dock_pv

> <b_m_subgroup_collapsed>
1

$$$$
CHEMBL1937_lig253
                    3D
 Schrodinger Suite 2021-1.
 41 44  0  0  1  0            999 V2000
   66.1445   29.3053    0.7133 C   0  0  0  0  0  0
   65.3716   28.8421   -0.3472 C   0  0  0  0  0  0
   64.2190   28.1070   -0.1880 C   0  0  0  0  0  0
   63.8184   27.7494    1.0669 C   0  0  0  0  0  0
   64.4802   28.2768    2.1599 C   0  0  0  0  0  0
   65.6694   29.0173    2.0018 C   0  0  0  0  0  0
   67.4179   29.9129    0.5134 N   0  0  0  0  0  0
   67.8078   30.8097   -0.4282 C   0  0  0  0  0  0
   69.2534   31.2134   -0.5124 C   0  0  0  0  0  0
   66.9970   31.3142   -1.2118 O   0  0  0  0  0  0
   65.8180   28.9150   -1.6184 N   0  0  0  0  0  0
   69.5891   32.5386   -0.8155 C   0  0  0  0  0  0
   70.9232   32.9145   -0.9542 C   0  0  0  0  0  0
   71.9270   31.9665   -0.7843 C   0  0  0  0  0  0
   71.6049   30.6447   -0.4976 C   0  0  0  0  0  0
   70.2687   30.2672   -0.3826 C   0  0  0  0  0  0
   63.7580   28.1148    3.4152 C   0  0  0  0  0  0
   62.3934   28.1100    3.3285 O   0  0  0  0  0  0
   64.1755   28.1150    4.7139 C   0  0  0  0  0  0
   63.0178   28.4203    5.4714 C   0  0  0  0  0  0
   61.9367   28.3310    4.5809 C   0  0  0  0  0  0
   60.6062   28.5151    4.9673 C   0  0  0  0  0  0
   60.4010   28.9153    6.2901 C   0  0  0  0  0  0
   61.4589   29.0356    7.1840 C   0  0  0  0  0  0
   62.7721   28.7694    6.7842 C   0  0  0  0  0  0
   63.6724   27.7146   -1.0338 H   0  0  0  0  0  0
   62.9589   27.1133    1.1822 H   0  0  0  0  0  0
   66.2030   29.3760    2.8686 H   0  0  0  0  0  0
   68.1355   29.5834    1.1561 H   0  0  0  0  0  0
   65.4011   28.1072   -2.1015 H   0  0  0  0  0  0
   66.8313   28.7855   -1.6144 H   0  0  0  0  0  0
   68.8185   33.2862   -0.9474 H   0  0  0  0  0  0
   71.1814   33.9357   -1.1939 H   0  0  0  0  0  0
   72.9644   32.2514   -0.8883 H   0  0  0  0  0  0
   72.3928   29.9097   -0.4033 H   0  0  0  0  0  0
   70.0228   29.2344   -0.2074 H   0  0  0  0  0  0
   65.2021   28.0961    5.0504 H   0  0  0  0  0  0
   59.7903   28.4055    4.2678 H   0  0  0  0  0  0
   59.4105   29.1194    6.6439 H   0  0  0  0  0  0
   61.2473   29.3240    8.2038 H   0  0  0  0  0  0
   63.6037   28.8426    7.4700 H   0  0  0  0  0  0
  1  6  1  0  0  0
  1  2  2  0  0  0
  1  7  1  0  0  0
  2  3  1  0  0  0
  2 11  1  0  0  0
  3  4  2  0  0  0
  3 26  1  0  0  0
  4  5  1  0  0  0
  4 27  1  0  0  0
  5 17  1  0  0  0
  5  6  2  0  0  0
  6 28  1  0  0  0
  7  8  1  0  0  0
  7 29  1  0  0  0
  8  9  1  0  0  0
  8 10  2  0  0  0
  9 16  1  0  0  0
  9 12  2  0  0  0
 11 30  1  0  0  0
 11 31  1  0  0  0
 12 13  1  0  0  0
 12 32  1  0  0  0
 13 14  2  0  0  0
 13 33  1  0  0  0
 14 15  1  0  0  0
 14 34  1  0  0  0
 15 16  2  0  0  0
 15 35  1  0  0  0
 16 36  1  0  0  0
 17 18  1  0  0  0
 17 19  2  0  0  0
 18 21  1  0  0  0
 19 20  1  0  0  0
 19 37  1  0  0  0
 20 21  2  0  0  0
 20 25  1  0  0  0
 21 22  1  0  0  0
 22 23  2  0  0  0
 22 38  1  0  0  0
 23 24  1  0  0  0
 23 39  1  0  0  0
 24 25  2  0  0  0
 24 40  1  0  0  0
 25 41  1  0  0  0
M  END
> <s_m_entry_id>
52324

> <s_m_entry_name>
dock_pv.46

> <s_m_Source_Path>
/home/csk/Desktop/cluster/DUD-E-result/hdac2

> <s_m_Source_File>
dock_pv.maegz

> <i_m_Source_File_Index>
46

> <chembl_id>
CHEMBL1097063

> <chembl_pref_name>
None

> <i_lp_mmshare_version>
53161

> <i_f3d_flags>
0

> <r_lp_tautomer_probability>
1

> <s_lp_Force_Field>
OPLS_2005

> <r_lp_Energy>
25.730148

> <b_lp_Chiralities_Consistent>
1

> <s_lp_Variant>
CHEMBL1937_lig253-1

> <s_i_glide_gridfile>
glide-grid_3max

> <i_i_glide_lignum>
291

> <i_i_glide_rotatable_bonds>
4

> <r_i_docking_score>
-8.07366019856307

> <r_i_glide_ligand_efficiency>
-0.322946407942523

> <r_i_glide_ligand_efficiency_sa>
-0.944301024302869

> <r_i_glide_ligand_efficiency_ln>
-1.91369941513159

> <r_i_glide_gscore>
-8.07366019856307

> <r_i_glide_lipo>
-3.11486650478131

> <r_i_glide_hbond>
-0.790096677636177

> <r_i_glide_metal>
-0.502768608822051

> <r_i_glide_rewards>
-1.53616734642074

> <r_i_glide_evdw>
9.41398620605469

> <r_i_glide_ecoul>
-20.5585784912109

> <r_i_glide_erotb>
0.696719094581944

> <r_i_glide_esite>
-0.213392692105834

> <r_i_glide_emodel>
-22.6364441925556

> <r_i_glide_energy>
-11.1445922851562

> <r_i_glide_einternal>
8.02546691894531

> <i_i_glide_confnum>
27

> <i_i_glide_posenum>
102

> <r_i_glide_eff_state_penalty>
0

> <s_user_duplicate_titles>
CHEMBL1937_lig253

> <s_m_subgroup_title>
dock_pv

> <s_m_subgroupid>
dock_pv

> <b_m_subgroup_collapsed>
1

$$$$
CHEMBL1937_lig537
                    3D
 Schrodinger Suite 2021-1.
 43 45  0  0  1  0            999 V2000
   65.8603   30.1149   -0.7685 N   0  0  1  0  0  0
   72.4466   32.9904   -2.6214 O   0  0  0  0  0  0
   64.8278   28.6760    1.0811 C   0  0  0  0  0  0
   69.6552   32.5921   -0.4162 C   0  0  0  0  0  0
   68.5477   31.7793   -0.2041 C   0  0  0  0  0  0
   70.6009   30.9150   -1.8076 C   0  0  0  0  0  0
   71.9049   33.0324   -1.5137 C   0  0  0  0  0  0
   67.2197   29.5794   -0.6667 C   0  0  0  0  0  0
   63.2865   28.1153    4.1694 C   0  0  0  0  0  0
   63.8179   28.1416    1.7204 N   0  0  0  0  0  0
   70.7004   32.1711   -1.2303 C   0  0  0  0  0  0
   65.8895   28.9098    1.8857 O   0  0  0  0  0  0
   64.2158   28.1884    2.9816 C   0  0  0  0  0  0
   69.4736   30.1150   -1.6130 C   0  0  0  0  0  0
   65.4783   28.5160    3.1519 N   0  0  0  0  0  0
   68.4156   30.5364   -0.8218 C   0  0  0  0  0  0
   72.3241   33.8063   -0.4955 N   0  0  0  0  0  0
   64.9186   29.0260   -0.4114 C   0  0  0  0  0  0
   61.9006   28.1998    4.0116 C   0  0  0  0  0  0
   61.0842   28.4788    5.1101 C   0  0  0  0  0  0
   61.6393   28.5828    6.3880 C   0  0  0  0  0  0
   63.0032   28.3655    6.5718 C   0  0  0  0  0  0
   63.8124   28.1150    5.4748 C   0  0  0  0  0  0
   73.4484   34.6241   -0.6912 O   0  0  0  0  0  0
   60.7604   28.9024    7.5829 C   0  0  0  0  0  0
   65.8077   30.8119   -0.0163 H   0  0  0  0  0  0
   69.6951   33.5393    0.0916 H   0  0  0  0  0  0
   67.8180   32.1617    0.4649 H   0  0  0  0  0  0
   71.4097   30.5564   -2.4158 H   0  0  0  0  0  0
   67.2033   28.9151   -1.5148 H   0  0  0  0  0  0
   67.3980   28.9203    0.1879 H   0  0  0  0  0  0
   69.4179   29.1498   -2.0843 H   0  0  0  0  0  0
   71.9416   33.8641    0.4355 H   0  0  0  0  0  0
   63.9304   29.3127   -0.7649 H   0  0  0  0  0  0
   65.1547   28.1168   -0.9664 H   0  0  0  0  0  0
   61.4544   28.1154    3.0340 H   0  0  0  0  0  0
   60.0170   28.5805    4.9663 H   0  0  0  0  0  0
   63.4545   28.3846    7.5520 H   0  0  0  0  0  0
   64.8752   28.0066    5.6406 H   0  0  0  0  0  0
   73.0802   35.5021   -0.8173 H   0  0  0  0  0  0
   59.7198   29.0370    7.2954 H   0  0  0  0  0  0
   60.8102   28.0921    8.3111 H   0  0  0  0  0  0
   61.0958   29.8126    8.0788 H   0  0  0  0  0  0
  1 18  1  0  0  0
  1  8  1  0  0  0
  1 26  1  0  0  0
  2  7  2  0  0  0
  3 12  1  0  0  0
  3 10  2  0  0  0
  3 18  1  0  0  0
  4  5  1  0  0  0
  4 11  2  0  0  0
  4 27  1  0  0  0
  5 16  2  0  0  0
  5 28  1  0  0  0
  6 14  2  0  0  0
  6 11  1  0  0  0
  6 29  1  0  0  0
  7 11  1  0  0  0
  7 17  1  0  0  0
  8 16  1  0  0  0
  8 30  1  0  0  0
  8 31  1  0  0  0
  9 13  1  0  0  0
  9 19  1  0  0  0
  9 23  2  0  0  0
 10 13  1  0  0  0
 12 15  1  0  0  0
 13 15  2  0  0  0
 14 16  1  0  0  0
 14 32  1  0  0  0
 17 24  1  0  0  0
 17 33  1  0  0  0
 18 34  1  0  0  0
 18 35  1  0  0  0
 19 20  2  0  0  0
 19 36  1  0  0  0
 20 21  1  0  0  0
 20 37  1  0  0  0
 21 22  2  0  0  0
 21 25  1  0  0  0
 22 23  1  0  0  0
 22 38  1  0  0  0
 23 39  1  0  0  0
 24 40  1  0  0  0
 25 41  1  0  0  0
 25 42  1  0  0  0
 25 43  1  0  0  0
M  END
> <s_m_entry_id>
52325

> <s_m_entry_name>
dock_pv.47

> <s_m_Source_Path>
/home/csk/Desktop/cluster/DUD-E-result/hdac2

> <s_m_Source_File>
dock_pv.maegz

> <i_m_Source_File_Index>
47

> <chembl_id>
CHEMBL3421748

> <chembl_pref_name>
None

> <i_lp_mmshare_version>
53161

> <i_f3d_flags>
0

> <r_lp_tautomer_probability>
1

> <s_lp_Force_Field>
OPLS_2005

> <r_lp_Energy>
30.757772

> <b_lp_Chiralities_Consistent>
1

> <s_lp_Variant>
CHEMBL1937_lig537-1

> <s_i_glide_gridfile>
glide-grid_3max

> <i_i_glide_lignum>
594

> <i_i_glide_rotatable_bonds>
8

> <r_i_docking_score>
-7.98188313076465

> <r_i_glide_ligand_efficiency>
-0.319275325230586

> <r_i_glide_ligand_efficiency_sa>
-0.933566713346237

> <r_i_glide_ligand_efficiency_ln>
-1.89194549972658

> <r_i_glide_gscore>
-7.98188313076465

> <r_i_glide_lipo>
-2.16410281940642

> <r_i_glide_hbond>
-0.32

> <r_i_glide_metal>
-2.3

> <r_i_glide_rewards>
-1.60208736363627

> <r_i_glide_evdw>
-13.6475200653076

> <r_i_glide_ecoul>
-13.7971353530884

> <r_i_glide_erotb>
1.15625335850668

> <r_i_glide_esite>
0

> <r_i_glide_emodel>
-32.5221032252327

> <r_i_glide_energy>
-27.444655418396

> <r_i_glide_einternal>
4.6515064239502

> <i_i_glide_confnum>
41

> <i_i_glide_posenum>
399

> <r_i_glide_eff_state_penalty>
0

> <s_user_duplicate_titles>
CHEMBL1937_lig537

> <s_m_subgroup_title>
dock_pv

> <s_m_subgroupid>
dock_pv

> <b_m_subgroup_collapsed>
1

$$$$
CHEMBL1937_lig818
                    3D
 Schrodinger Suite 2021-1.
 48 49  0  0  1  0            999 V2000
   68.0560   30.0136   -0.6748 C   0  0  0  0  0  0
   68.5300   31.4534   -0.3938 C   0  0  0  0  0  0
   69.9366   31.7578   -0.9386 C   0  0  0  0  0  0
   71.0607   30.9405   -0.2610 C   0  0  0  0  0  0
   72.4917   31.2596   -0.7516 C   0  0  0  0  0  0
   73.0696   32.5887   -0.2377 C   0  0  0  0  0  0
   74.2673   32.5170    0.3663 N   0  0  0  0  0  0
   72.4486   33.6397   -0.4092 O   0  0  0  0  0  0
   74.8377   33.6913    0.8869 O   0  0  0  0  0  0
   66.6420   29.7546   -0.1482 C   0  0  0  0  0  0
   66.5724   29.1806    1.0606 N   0  0  0  0  0  0
   65.6684   30.1111   -0.8144 O   0  0  0  0  0  0
   65.4426   28.9632    1.7483 N   0  0  0  0  0  0
   65.6991   28.4243    2.8754 C   0  0  0  0  0  0
   64.6947   28.1149    3.8908 C   0  0  0  0  0  0
   63.3342   28.2080    3.5778 C   0  0  0  0  0  0
   62.3992   28.3285    4.5915 C   0  0  0  0  0  0
   62.8017   28.3165    5.9294 C   0  0  0  0  0  0
   64.1478   28.1153    6.2504 C   0  0  0  0  0  0
   65.0946   27.9599    5.2349 C   0  0  0  0  0  0
   61.7867   28.5154    6.9833 C   0  0  0  0  0  0
   61.1758   29.7150    6.9337 N   0  0  0  0  0  0
   60.2787   30.0480    7.8855 C   0  0  0  0  0  0
   59.9526   29.1875    8.9199 C   0  0  0  0  0  0
   60.5868   27.9524    8.9676 C   0  0  0  0  0  0
   61.4903   27.5876    7.9838 C   0  0  0  0  0  0
   68.0870   29.7888   -1.7402 H   0  0  0  0  0  0
   68.7441   29.3135   -0.2067 H   0  0  0  0  0  0
   68.5270   31.6385    0.6824 H   0  0  0  0  0  0
   67.8230   32.1688   -0.8163 H   0  0  0  0  0  0
   70.1181   32.8237   -0.8041 H   0  0  0  0  0  0
   69.9593   31.5855   -2.0147 H   0  0  0  0  0  0
   70.8852   29.8818   -0.4497 H   0  0  0  0  0  0
   71.0045   31.0549    0.8223 H   0  0  0  0  0  0
   72.5311   31.2589   -1.8409 H   0  0  0  0  0  0
   73.1480   30.4464   -0.4338 H   0  0  0  0  0  0
   74.7987   31.6792    0.6048 H   0  0  0  0  0  0
   74.8799   33.5185    1.8329 H   0  0  0  0  0  0
   67.4180   28.9146    1.5488 H   0  0  0  0  0  0
   66.7062   28.1432    3.1819 H   0  0  0  0  0  0
   63.0031   28.3018    2.5533 H   0  0  0  0  0  0
   61.3568   28.4549    4.3348 H   0  0  0  0  0  0
   64.4665   28.0933    7.2827 H   0  0  0  0  0  0
   66.1379   27.8777    5.4990 H   0  0  0  0  0  0
   59.8191   31.0218    7.8079 H   0  0  0  0  0  0
   59.2451   29.4743    9.6796 H   0  0  0  0  0  0
   60.3912   27.3146    9.8040 H   0  0  0  0  0  0
   61.9982   26.6350    8.0291 H   0  0  0  0  0  0
  1  2  1  0  0  0
  1 10  1  0  0  0
  1 27  1  0  0  0
  1 28  1  0  0  0
  2  3  1  0  0  0
  2 29  1  0  0  0
  2 30  1  0  0  0
  3  4  1  0  0  0
  3 31  1  0  0  0
  3 32  1  0  0  0
  4  5  1  0  0  0
  4 33  1  0  0  0
  4 34  1  0  0  0
  5  6  1  0  0  0
  5 35  1  0  0  0
  5 36  1  0  0  0
  6  7  1  0  0  0
  6  8  2  0  0  0
  7  9  1  0  0  0
  7 37  1  0  0  0
  9 38  1  0  0  0
 10 11  1  0  0  0
 10 12  2  0  0  0
 11 13  1  0  0  0
 11 39  1  0  0  0
 13 14  2  0  0  0
 14 15  1  0  0  0
 14 40  1  0  0  0
 15 16  2  0  0  0
 15 20  1  0  0  0
 16 17  1  0  0  0
 16 41  1  0  0  0
 17 18  2  0  0  0
 17 42  1  0  0  0
 18 19  1  0  0  0
 18 21  1  0  0  0
 19 20  2  0  0  0
 19 43  1  0  0  0
 20 44  1  0  0  0
 21 22  2  0  0  0
 21 26  1  0  0  0
 22 23  1  0  0  0
 23 24  2  0  0  0
 23 45  1  0  0  0
 24 25  1  0  0  0
 24 46  1  0  0  0
 25 26  2  0  0  0
 25 47  1  0  0  0
 26 48  1  0  0  0
M  END
> <s_m_entry_id>
52326

> <s_m_entry_name>
dock_pv.48

> <s_m_Source_Path>
/home/csk/Desktop/cluster/DUD-E-result/hdac2

> <s_m_Source_File>
dock_pv.maegz

> <i_m_Source_File_Index>
48

> <chembl_id>
CHEMBL3758870

> <chembl_pref_name>
None

> <i_lp_mmshare_version>
53161

> <i_f3d_flags>
0

> <r_lp_tautomer_probability>
1

> <s_lp_Force_Field>
OPLS_2005

> <r_lp_Energy>
19.556977

> <b_lp_Chiralities_Consistent>
1

> <s_lp_Variant>
CHEMBL1937_lig818-1

> <s_i_glide_gridfile>
glide-grid_3max

> <i_i_glide_lignum>
891

> <i_i_glide_rotatable_bonds>
12

> <r_i_docking_score>
-7.97918405285211

> <r_i_glide_ligand_efficiency>
-0.306891694340466

> <r_i_glide_ligand_efficiency_sa>
-0.909165436923124

> <r_i_glide_ligand_efficiency_ln>
-1.87388519297395

> <r_i_glide_gscore>
-7.97918405285211

> <r_i_glide_lipo>
-2.40550640651516

> <r_i_glide_hbond>
-0.608

> <r_i_glide_metal>
-2.3

> <r_i_glide_rewards>
-1.35101806038231

> <r_i_glide_evdw>
-7.70362234115601

> <r_i_glide_ecoul>
-16.0021457672119

> <r_i_glide_erotb>
1.67347887203599

> <r_i_glide_esite>
-0.20263547585104

> <r_i_glide_emodel>
-22.7494095003753

> <r_i_glide_energy>
-23.7057681083679

> <r_i_glide_einternal>
8.01726913452148

> <i_i_glide_confnum>
14

> <i_i_glide_posenum>
39

> <r_i_glide_eff_state_penalty>
0

> <s_user_duplicate_titles>
CHEMBL1937_lig818

> <s_m_subgroup_title>
dock_pv

> <s_m_subgroupid>
dock_pv

> <b_m_subgroup_collapsed>
1

$$$$
CHEMBL1937_lig67
                    3D
 Schrodinger Suite 2021-1.
 17 17  0  0  1  0            999 V2000
   68.2772   30.4857   -0.3698 C   0  0  0  0  0  0
   68.3224   31.8785   -0.4652 C   0  0  0  0  0  0
   69.5280   32.5336   -0.6970 C   0  0  0  0  0  0
   70.7056   31.8030   -0.7881 C   0  0  0  0  0  0
   70.6765   30.4200   -0.6678 C   0  0  0  0  0  0
   69.4631   29.7629   -0.4727 C   0  0  0  0  0  0
   66.9575   29.7741   -0.2440 C   0  0  0  0  0  0
   66.2180   29.7150   -1.2160 O   0  0  0  0  0  0
   66.6180   29.3150    0.9699 N   0  0  0  0  0  0
   65.3828   28.6658    1.1336 O   0  0  0  0  0  0
   67.4180   32.4636   -0.4160 H   0  0  0  0  0  0
   69.5497   33.6054   -0.8153 H   0  0  0  0  0  0
   71.6452   32.3083   -0.9587 H   0  0  0  0  0  0
   71.5929   29.8534   -0.7528 H   0  0  0  0  0  0
   69.4363   28.6870   -0.4191 H   0  0  0  0  0  0
   67.2305   29.2553    1.7772 H   0  0  0  0  0  0
   65.6175   27.7348    1.1991 H   0  0  0  0  0  0
  1  2  2  0  0  0
  1  6  1  0  0  0
  1  7  1  0  0  0
  2  3  1  0  0  0
  2 11  1  0  0  0
  3  4  2  0  0  0
  3 12  1  0  0  0
  4  5  1  0  0  0
  4 13  1  0  0  0
  5  6  2  0  0  0
  5 14  1  0  0  0
  6 15  1  0  0  0
  7  8  2  0  0  0
  7  9  1  0  0  0
  9 10  1  0  0  0
  9 16  1  0  0  0
 10 17  1  0  0  0
M  END
> <s_m_entry_id>
52327

> <s_m_entry_name>
dock_pv.49

> <s_m_Source_Path>
/home/csk/Desktop/cluster/DUD-E-result/hdac2

> <s_m_Source_File>
dock_pv.maegz

> <i_m_Source_File_Index>
49

> <chembl_id>
CHEMBL16300

> <chembl_pref_name>
BENZOHYDROXAMATE

> <i_lp_mmshare_version>
53161

> <i_f3d_flags>
0

> <r_lp_tautomer_probability>
1

> <s_lp_Force_Field>
OPLS_2005

> <r_lp_Energy>
15.75182

> <b_lp_Chiralities_Consistent>
1

> <s_lp_Variant>
CHEMBL1937_lig67-1

> <s_i_glide_gridfile>
glide-grid_3max

> <i_i_glide_lignum>
75

> <i_i_glide_rotatable_bonds>
3

> <r_i_docking_score>
-7.96928316342598

> <r_i_glide_ligand_efficiency>
-0.796928316342598

> <r_i_glide_ligand_efficiency_sa>
-1.7169300088794

> <r_i_glide_ligand_efficiency_ln>
-2.41304400614284

> <r_i_glide_gscore>
-7.96928316342598

> <r_i_glide_lipo>
-1.54286048229605

> <r_i_glide_hbond>
-0.222282454892631

> <r_i_glide_metal>
-2.3

> <r_i_glide_rewards>
-2.54159240253941

> <r_i_glide_evdw>
-9.39329528808594

> <r_i_glide_ecoul>
-9.80616474151611

> <r_i_glide_erotb>
0.75338542943489

> <r_i_glide_esite>
-0.175343777501059

> <r_i_glide_emodel>
-30.3368520012701

> <r_i_glide_energy>
-19.1994600296021

> <r_i_glide_einternal>
5.95544528961182

> <i_i_glide_confnum>
1

> <i_i_glide_posenum>
90

> <r_i_glide_eff_state_penalty>
0

> <s_user_duplicate_titles>
CHEMBL1937_lig67

> <s_m_subgroup_title>
dock_pv

> <s_m_subgroupid>
dock_pv

> <b_m_subgroup_collapsed>
1

$$$$
CHEMBL1937_lig355
                    3D
 Schrodinger Suite 2021-1.
 18 18  0  0  1  0            999 V2000
   66.0005   29.2634   -0.0742 C   0  0  0  0  0  0
   67.2292   29.7150    0.2274 N   0  0  0  0  0  0
   65.5289   29.3150   -1.2154 O   0  0  0  0  0  0
   68.0430   30.1742   -0.8167 O   0  0  0  0  0  0
   65.6242   28.9151    2.5285 C   0  0  0  0  0  0
   65.2575   28.7572    1.0627 C   0  0  0  0  0  0
   64.0829   28.1150    0.9133 C   0  0  0  0  0  0
   63.4202   27.8740    2.2536 C   0  0  0  0  0  0
   64.5383   28.1151    3.2475 C   0  0  0  0  0  0
   67.7627   29.4751    1.0588 H   0  0  0  0  0  0
   68.6182   29.4250   -1.0085 H   0  0  0  0  0  0
   66.6169   28.5334    2.7745 H   0  0  0  0  0  0
   65.6067   29.9701    2.7840 H   0  0  0  0  0  0
   63.5872   27.8755   -0.0191 H   0  0  0  0  0  0
   62.6181   28.5861    2.4082 H   0  0  0  0  0  0
   62.9461   26.9150    2.3751 H   0  0  0  0  0  0
   64.9657   27.1795    3.5843 H   0  0  0  0  0  0
   64.1583   28.5150    4.1797 H   0  0  0  0  0  0
  1  2  1  0  0  0
  1  3  2  0  0  0
  1  6  1  0  0  0
  2  4  1  0  0  0
  2 10  1  0  0  0
  4 11  1  0  0  0
  5  6  1  0  0  0
  5  9  1  0  0  0
  5 12  1  0  0  0
  5 13  1  0  0  0
  6  7  2  0  0  0
  7  8  1  0  0  0
  7 14  1  0  0  0
  8  9  1  0  0  0
  8 15  1  0  0  0
  8 16  1  0  0  0
  9 17  1  0  0  0
  9 18  1  0  0  0
M  END
> <s_m_entry_id>
52328

> <s_m_entry_name>
dock_pv.50

> <s_m_Source_Path>
/home/csk/Desktop/cluster/DUD-E-result/hdac2

> <s_m_Source_File>
dock_pv.maegz

> <i_m_Source_File_Index>
50

> <chembl_id>
CHEMBL2333346

> <chembl_pref_name>
None

> <i_lp_mmshare_version>
53161

> <i_f3d_flags>
0

> <r_lp_tautomer_probability>
1

> <s_lp_Force_Field>
OPLS_2005

> <r_lp_Energy>
26.007338

> <b_lp_Chiralities_Consistent>
1

> <s_lp_Variant>
CHEMBL1937_lig355-1

> <s_i_glide_gridfile>
glide-grid_3max

> <i_i_glide_lignum>
401

> <i_i_glide_rotatable_bonds>
3

> <r_i_docking_score>
-7.92019615543613

> <r_i_glide_ligand_efficiency>
-0.880021795048459

> <r_i_glide_ligand_efficiency_sa>
-1.83051909847271

> <r_i_glide_ligand_efficiency_ln>
-2.47720983117016

> <r_i_glide_gscore>
-7.92019615543613

> <r_i_glide_lipo>
-1.60533330077246

> <r_i_glide_hbond>
-0.32

> <r_i_glide_metal>
-2.3

> <r_i_glide_rewards>
-2.24977223479764

> <r_i_glide_evdw>
-11.7913293838501

> <r_i_glide_ecoul>
-10.2651805877686

> <r_i_glide_erotb>
0.848367602873245

> <r_i_glide_esite>
-0.164114665381495

> <r_i_glide_emodel>
-35.5628959933516

> <r_i_glide_energy>
-22.0565099716187

> <r_i_glide_einternal>
0.201293811202049

> <i_i_glide_confnum>
1

> <i_i_glide_posenum>
124

> <r_i_glide_eff_state_penalty>
0

> <s_user_duplicate_titles>
CHEMBL1937_lig355

> <s_m_subgroup_title>
dock_pv

> <s_m_subgroupid>
dock_pv

> <b_m_subgroup_collapsed>
1

$$$$
CHEMBL1937_lig359
                    3D
 Schrodinger Suite 2021-1.
 34 35  0  0  1  0            999 V2000
   71.6567   30.9149   -0.3032 C   0  0  0  0  0  0
   72.6673   31.8693   -0.2657 C   0  0  0  0  0  0
   72.4115   33.1519   -0.7372 C   0  0  0  0  0  0
   71.1522   33.4812   -1.2295 C   0  0  0  0  0  0
   70.1280   32.5376   -1.2165 C   0  0  0  0  0  0
   70.3772   31.2412   -0.7652 C   0  0  0  0  0  0
   66.2180   29.3150    1.9780 C   0  0  0  0  0  0
   65.9888   29.1647    0.6152 C   0  0  0  0  0  0
   64.8393   28.4587    0.2218 C   0  0  0  0  0  0
   63.9077   28.0182    1.1661 C   0  0  0  0  0  0
   64.1058   28.2741    2.5309 C   0  0  0  0  0  0
   65.3361   28.8096    2.9099 C   0  0  0  0  0  0
   63.0180   28.1150    3.5840 C   0  0  0  0  0  0
   61.8031   27.7150    3.1840 N   0  0  0  0  0  0
   63.2288   28.4030    4.7625 O   0  0  0  0  0  0
   60.7009   28.1150    3.9840 O   0  0  0  0  0  0
   66.9597   29.7150   -0.4137 C   0  0  0  0  0  0
   68.1945   30.1150   -0.0321 N   0  0  0  0  0  0
   66.6180   29.7150   -1.5888 O   0  0  0  0  0  0
   69.3316   30.1491   -0.9708 C   0  0  0  0  0  0
   71.9023   29.9088   -0.0160 H   0  0  0  0  0  0
   73.6515   31.6050    0.0976 H   0  0  0  0  0  0
   73.2001   33.8902   -0.7335 H   0  0  0  0  0  0
   70.9710   34.4734   -1.6160 H   0  0  0  0  0  0
   69.1566   32.8021   -1.6047 H   0  0  0  0  0  0
   67.0942   29.8213    2.3440 H   0  0  0  0  0  0
   64.6377   28.2574   -0.8201 H   0  0  0  0  0  0
   63.0180   27.5275    0.8069 H   0  0  0  0  0  0
   65.5989   28.9150    3.9508 H   0  0  0  0  0  0
   61.5323   27.4652    2.2465 H   0  0  0  0  0  0
   60.1151   27.3435    3.9915 H   0  0  0  0  0  0
   68.4443   29.9728    0.9389 H   0  0  0  0  0  0
   69.8180   29.1736   -0.9172 H   0  0  0  0  0  0
   69.0038   30.2199   -2.0105 H   0  0  0  0  0  0
  1  2  2  0  0  0
  1  6  1  0  0  0
  1 21  1  0  0  0
  2  3  1  0  0  0
  2 22  1  0  0  0
  3  4  2  0  0  0
  3 23  1  0  0  0
  4  5  1  0  0  0
  4 24  1  0  0  0
  5  6  2  0  0  0
  5 25  1  0  0  0
  6 20  1  0  0  0
  7  8  2  0  0  0
  7 12  1  0  0  0
  7 26  1  0  0  0
  8  9  1  0  0  0
  8 17  1  0  0  0
  9 10  2  0  0  0
  9 27  1  0  0  0
 10 11  1  0  0  0
 10 28  1  0  0  0
 11 12  2  0  0  0
 11 13  1  0  0  0
 12 29  1  0  0  0
 13 14  1  0  0  0
 13 15  2  0  0  0
 14 16  1  0  0  0
 14 30  1  0  0  0
 16 31  1  0  0  0
 17 18  1  0  0  0
 17 19  2  0  0  0
 18 20  1  0  0  0
 18 32  1  0  0  0
 20 33  1  0  0  0
 20 34  1  0  0  0
M  END
> <s_m_entry_id>
52329

> <s_m_entry_name>
dock_pv.51

> <s_m_Source_Path>
/home/csk/Desktop/cluster/DUD-E-result/hdac2

> <s_m_Source_File>
dock_pv.maegz

> <i_m_Source_File_Index>
51

> <chembl_id>
CHEMBL2333341

> <chembl_pref_name>
None

> <i_lp_mmshare_version>
53161

> <i_f3d_flags>
0

> <r_lp_tautomer_probability>
1

> <s_lp_Force_Field>
OPLS_2005

> <r_lp_Energy>
23.382317

> <b_lp_Chiralities_Consistent>
1

> <s_lp_Variant>
CHEMBL1937_lig359-1

> <s_i_glide_gridfile>
glide-grid_3max

> <i_i_glide_lignum>
405

> <i_i_glide_rotatable_bonds>
7

> <r_i_docking_score>
-7.92005128641813

> <r_i_glide_ligand_efficiency>
-0.396002564320906

> <r_i_glide_ligand_efficiency_sa>
-1.07491633573604

> <r_i_glide_ligand_efficiency_ln>
-1.9821276162163

> <r_i_glide_gscore>
-7.92005128641813

> <r_i_glide_lipo>
-2.51236747894203

> <r_i_glide_hbond>
-0.232612320221619

> <r_i_glide_metal>
-2.3

> <r_i_glide_rewards>
-1.60258968437078

> <r_i_glide_evdw>
-17.2121276855469

> <r_i_glide_ecoul>
-10.1261262893677

> <r_i_glide_erotb>
1.22400406906171

> <r_i_glide_esite>
-0.11696054426291

> <r_i_glide_emodel>
-29.3803018840155

> <r_i_glide_energy>
-27.3382539749146

> <r_i_glide_einternal>
8.90308570861816

> <i_i_glide_confnum>
20

> <i_i_glide_posenum>
199

> <r_i_glide_eff_state_penalty>
0

> <s_user_duplicate_titles>
CHEMBL1937_lig359

> <s_m_subgroup_title>
dock_pv

> <s_m_subgroupid>
dock_pv

> <b_m_subgroup_collapsed>
1

$$$$
CHEMBL1937_lig454
                    3D
 Schrodinger Suite 2021-1.
 29 31  0  0  1  0            999 V2000
   67.0177   29.7149    1.3613 O   0  0  0  0  0  0
   65.5082   28.9150   -1.6160 O   0  0  0  0  0  0
   70.9910   34.0111   -1.6163 O   0  0  0  0  0  0
   73.1474   32.4121   -0.9525 O   0  0  0  0  0  0
   65.1217   28.6156    0.7381 C   0  0  0  0  0  0
   67.0207   29.7235    0.0093 C   0  0  0  0  0  0
   65.8180   29.0461   -0.4438 C   0  0  0  0  0  0
   65.9069   29.0239    1.7789 C   0  0  0  0  0  0
   67.9617   30.2459   -0.8185 C   0  0  0  0  0  0
   69.2523   30.9219   -0.6013 C   0  0  0  0  0  0
   63.9296   27.9258    0.9509 C   0  0  0  0  0  0
   65.5539   28.7311    3.0884 C   0  0  0  0  0  0
   69.4651   32.2711   -0.9195 C   0  0  0  0  0  0
   70.7700   32.7621   -1.0920 C   0  0  0  0  0  0
   70.3649   30.1147   -0.4147 C   0  0  0  0  0  0
   71.8672   31.9435   -0.8135 C   0  0  0  0  0  0
   63.5123   27.7149    2.2683 C   0  0  0  0  0  0
   64.3234   28.1150    3.3334 C   0  0  0  0  0  0
   71.6618   30.6201   -0.4503 C   0  0  0  0  0  0
   70.1867   34.5144   -1.7598 H   0  0  0  0  0  0
   73.1463   33.3368   -1.2115 H   0  0  0  0  0  0
   67.8076   30.0977   -1.8722 H   0  0  0  0  0  0
   63.3173   27.5881    0.1263 H   0  0  0  0  0  0
   66.1931   28.9794    3.9157 H   0  0  0  0  0  0
   68.6221   32.9024   -1.1566 H   0  0  0  0  0  0
   70.2172   29.0538   -0.3111 H   0  0  0  0  0  0
   62.5789   27.2074    2.4640 H   0  0  0  0  0  0
   64.0154   27.9197    4.3493 H   0  0  0  0  0  0
   72.5111   29.9722   -0.2842 H   0  0  0  0  0  0
  1  6  1  0  0  0
  1  8  1  0  0  0
  2  7  2  0  0  0
  3 14  1  0  0  0
  3 20  1  0  0  0
  4 16  1  0  0  0
  4 21  1  0  0  0
  5  7  1  0  0  0
  5  8  2  0  0  0
  5 11  1  0  0  0
  6  7  1  0  0  0
  6  9  2  0  0  0
  8 12  1  0  0  0
  9 10  1  0  0  0
  9 22  1  0  0  0
 10 13  2  0  0  0
 10 15  1  0  0  0
 11 17  2  0  0  0
 11 23  1  0  0  0
 12 18  2  0  0  0
 12 24  1  0  0  0
 13 14  1  0  0  0
 13 25  1  0  0  0
 14 16  2  0  0  0
 15 19  2  0  0  0
 15 26  1  0  0  0
 16 19  1  0  0  0
 17 18  1  0  0  0
 17 27  1  0  0  0
 18 28  1  0  0  0
 19 29  1  0  0  0
M  END
> <s_m_entry_id>
52330

> <s_m_entry_name>
dock_pv.52

> <s_m_Source_Path>
/home/csk/Desktop/cluster/DUD-E-result/hdac2

> <s_m_Source_File>
dock_pv.maegz

> <i_m_Source_File_Index>
52

> <chembl_id>
CHEMBL1478023

> <chembl_pref_name>
None

> <i_lp_mmshare_version>
53161

> <i_f3d_flags>
0

> <r_lp_tautomer_probability>
1

> <s_lp_Force_Field>
OPLS_2005

> <r_lp_Energy>
28.063632

> <b_lp_Chiralities_Consistent>
1

> <s_lp_Variant>
CHEMBL1937_lig454-1

> <s_i_glide_gridfile>
glide-grid_3max

> <i_i_glide_lignum>
510

> <i_i_glide_rotatable_bonds>
3

> <r_i_docking_score>
-7.89145021497501

> <r_i_glide_ligand_efficiency>
-0.415339484998685

> <r_i_glide_ligand_efficiency_sa>
-1.10829256546205

> <r_i_glide_ligand_efficiency_ln>
-2.00065212230579

> <r_i_glide_gscore>
-7.89145021497501

> <r_i_glide_lipo>
-2.99230961111931

> <r_i_glide_hbond>
0

> <r_i_glide_metal>
-2.3

> <r_i_glide_rewards>
-1.88661190224707

> <r_i_glide_evdw>
-13.027063369751

> <r_i_glide_ecoul>
-1.55476677417755

> <r_i_glide_erotb>
0.272039483005549

> <r_i_glide_esite>
-0.1

> <r_i_glide_emodel>
-18.9567386364086

> <r_i_glide_energy>
-14.5818301439285

> <r_i_glide_einternal>
6.67033815383911

> <i_i_glide_confnum>
3

> <i_i_glide_posenum>
161

> <r_i_glide_eff_state_penalty>
0

> <s_user_duplicate_titles>
CHEMBL1937_lig454

> <s_m_subgroup_title>
dock_pv

> <s_m_subgroupid>
dock_pv

> <b_m_subgroup_collapsed>
1

$$$$
CHEMBL1937_lig829
                    3D
 Schrodinger Suite 2021-1.
 40 41  0  0  1  0            999 V2000
   64.5462   28.1150    0.3223 N   0  0  0  0  0  0
   63.8898   27.7562    1.4306 N   0  0  0  0  0  0
   64.6178   28.2537    2.4063 C   0  0  0  0  0  0
   65.7474   28.9150    1.9321 C   0  0  0  0  0  0
   65.6821   28.8489    0.5622 C   0  0  0  0  0  0
   66.5264   29.4076   -0.4371 C   0  0  0  0  0  0
   66.2180   29.3150   -1.6160 O   0  0  0  0  0  0
   67.6222   30.0399    0.0055 N   0  0  0  0  0  0
   68.6174   30.7667   -0.7724 C   0  0  0  0  0  0
   69.9994   30.7093   -0.0889 C   0  0  0  0  0  0
   70.8782   31.9556   -0.3049 C   0  0  0  0  0  0
   71.3725   32.1769   -1.7433 C   0  0  0  0  0  0
   72.2309   33.4559   -1.8567 C   0  0  0  0  0  0
   72.7710   33.7557   -3.2659 C   0  0  0  0  0  0
   71.4186   34.1242   -4.4160 S   0  0  0  0  0  0
   64.2685   28.1150    3.8261 C   0  0  0  0  0  0
   63.0118   28.4837    4.3232 C   0  0  0  0  0  0
   62.7629   28.5150    5.6594 N   0  0  0  0  0  0
   65.2834   27.7210    4.6565 N   0  0  0  0  0  0
   65.0180   27.7151    5.9840 C   0  0  0  0  0  0
   63.7741   28.1150    6.4779 C   0  0  0  0  0  0
   64.2290   27.8405   -0.5991 H   0  0  0  0  0  0
   66.5043   29.4045    2.5193 H   0  0  0  0  0  0
   67.8939   29.8475    0.9613 H   0  0  0  0  0  0
   68.2688   31.7998   -0.8217 H   0  0  0  0  0  0
   68.6907   30.3982   -1.7975 H   0  0  0  0  0  0
   70.5295   29.8131   -0.4159 H   0  0  0  0  0  0
   69.8738   30.5904    0.9893 H   0  0  0  0  0  0
   71.7428   31.8852    0.3581 H   0  0  0  0  0  0
   70.3264   32.8386    0.0205 H   0  0  0  0  0  0
   70.5174   32.2360   -2.4160 H   0  0  0  0  0  0
   71.9585   31.3149   -2.0637 H   0  0  0  0  0  0
   73.0803   33.3703   -1.1768 H   0  0  0  0  0  0
   71.6582   34.3153   -1.5043 H   0  0  0  0  0  0
   73.3489   32.9150   -3.6465 H   0  0  0  0  0  0
   73.4446   34.6130   -3.2388 H   0  0  0  0  0  0
   71.1032   35.3140   -3.8941 H   0  0  0  0  0  0
   62.2180   28.7887    3.6628 H   0  0  0  0  0  0
   65.7810   27.3285    6.6399 H   0  0  0  0  0  0
   63.5722   28.0542    7.5308 H   0  0  0  0  0  0
  1  2  1  0  0  0
  1  5  1  0  0  0
  1 22  1  0  0  0
  2  3  2  0  0  0
  3  4  1  0  0  0
  3 16  1  0  0  0
  4  5  2  0  0  0
  4 23  1  0  0  0
  5  6  1  0  0  0
  6  7  2  0  0  0
  6  8  1  0  0  0
  8  9  1  0  0  0
  8 24  1  0  0  0
  9 10  1  0  0  0
  9 25  1  0  0  0
  9 26  1  0  0  0
 10 11  1  0  0  0
 10 27  1  0  0  0
 10 28  1  0  0  0
 11 12  1  0  0  0
 11 29  1  0  0  0
 11 30  1  0  0  0
 12 13  1  0  0  0
 12 31  1  0  0  0
 12 32  1  0  0  0
 13 14  1  0  0  0
 13 33  1  0  0  0
 13 34  1  0  0  0
 14 15  1  0  0  0
 14 35  1  0  0  0
 14 36  1  0  0  0
 15 37  1  0  0  0
 16 17  2  0  0  0
 16 19  1  0  0  0
 17 18  1  0  0  0
 17 38  1  0  0  0
 18 21  2  0  0  0
 19 20  2  0  0  0
 20 21  1  0  0  0
 20 39  1  0  0  0
 21 40  1  0  0  0
M  END
> <s_m_entry_id>
52331

> <s_m_entry_name>
dock_pv.53

> <s_m_Source_Path>
/home/csk/Desktop/cluster/DUD-E-result/hdac2

> <s_m_Source_File>
dock_pv.maegz

> <i_m_Source_File_Index>
53

> <chembl_id>
CHEMBL3760013

> <chembl_pref_name>
None

> <i_lp_mmshare_version>
53161

> <i_f3d_flags>
0

> <r_lp_tautomer_probability>
0.5

> <s_lp_Force_Field>
OPLS_2005

> <r_lp_Energy>
18.089321

> <b_lp_Chiralities_Consistent>
1

> <s_lp_Variant>
CHEMBL1937_lig829-1

> <s_i_glide_gridfile>
glide-grid_3max

> <i_i_glide_lignum>
904

> <i_i_glide_rotatable_bonds>
10

> <r_i_docking_score>
-7.83224738010161

> <r_i_glide_ligand_efficiency>
-0.372964160957219

> <r_i_glide_ligand_efficiency_sa>
-1.02897983954432

> <r_i_glide_ligand_efficiency_ln>
-1.93650733818409

> <r_i_glide_gscore>
-7.83224738010161

> <r_i_glide_lipo>
-2.87561431891658

> <r_i_glide_hbond>
-0.268053901847618

> <r_i_glide_metal>
-2.3

> <r_i_glide_rewards>
-1.46600900150068

> <r_i_glide_evdw>
-21.0566425323486

> <r_i_glide_ecoul>
-9.77342510223389

> <r_i_glide_erotb>
1.78097127063928

> <r_i_glide_esite>
-0.184695536523503

> <r_i_glide_emodel>
-40.2813246123224

> <r_i_glide_energy>
-30.8300676345825

> <r_i_glide_einternal>
13.1307802200317

> <i_i_glide_confnum>
153

> <i_i_glide_posenum>
13

> <r_i_glide_eff_state_penalty>
0

> <s_user_duplicate_titles>
CHEMBL1937_lig829,CHEMBL1937_lig829

> <s_m_subgroup_title>
dock_pv

> <s_m_subgroupid>
dock_pv

> <b_m_subgroup_collapsed>
1

$$$$
CHEMBL1937_lig462
                    3D
 Schrodinger Suite 2021-1.
 45 46  0  0  1  0            999 V2000
   62.1842   28.9837    6.3841 C   0  0  0  0  0  0
   62.0920   28.1150    5.1522 C   0  0  0  0  0  0
   62.5991   28.6465    3.8148 C   0  0  0  0  0  0
   63.9677   28.1149    3.3671 C   0  0  0  0  0  0
   64.5260   28.8984    2.1701 C   0  0  0  0  0  0
   65.3822   28.0297    1.2511 C   0  0  0  0  0  0
   65.8180   28.7418   -0.0171 C   0  0  0  0  0  0
   63.2947   29.3150    6.7840 O   0  0  0  0  0  0
   61.0141   29.3131    6.9640 N   0  0  0  0  0  0
   61.0180   30.1755    8.0683 O   0  0  0  0  0  0
   67.0797   29.4546    0.1744 N   0  0  0  0  0  0
   67.4531   30.5150   -0.5418 C   0  0  0  0  0  0
   72.9315   32.0744   -1.1405 N   0  0  0  0  0  0
   73.3429   33.1890   -1.7852 C   0  0  0  0  0  0
   74.5196   33.3785   -2.0664 O   0  0  0  0  0  0
   72.2573   34.0958   -2.1287 C   0  0  0  0  0  0
   70.9628   33.8502   -1.8203 C   0  0  0  0  0  0
   70.5670   32.6272   -1.1156 C   0  0  0  0  0  0
   69.2395   32.2963   -0.8160 C   0  0  0  0  0  0
   68.8992   30.9633   -0.5356 C   0  0  0  0  0  0
   69.9376   30.0361   -0.4309 C   0  0  0  0  0  0
   71.2775   30.4303   -0.4967 C   0  0  0  0  0  0
   71.5982   31.7179   -0.8708 C   0  0  0  0  0  0
   66.6180   31.0996   -1.2160 O   0  0  0  0  0  0
   62.7625   27.3150    5.4136 H   0  0  0  0  0  0
   61.0820   27.7150    5.0418 H   0  0  0  0  0  0
   61.8682   28.3694    3.0577 H   0  0  0  0  0  0
   62.6180   29.7150    3.8273 H   0  0  0  0  0  0
   64.6889   28.1150    4.1863 H   0  0  0  0  0  0
   63.8407   27.0683    3.0951 H   0  0  0  0  0  0
   63.7097   29.3150    1.5840 H   0  0  0  0  0  0
   65.1120   29.7472    2.5176 H   0  0  0  0  0  0
   66.2710   27.7150    1.7904 H   0  0  0  0  0  0
   64.8321   27.1274    0.9778 H   0  0  0  0  0  0
   65.9414   28.0126   -0.8160 H   0  0  0  0  0  0
   65.0101   29.3940   -0.3563 H   0  0  0  0  0  0
   60.0934   28.9676    6.7233 H   0  0  0  0  0  0
   60.8680   29.5870    8.8144 H   0  0  0  0  0  0
   67.7305   29.0742    0.8567 H   0  0  0  0  0  0
   73.6797   31.4328   -0.9292 H   0  0  0  0  0  0
   72.5203   34.9876   -2.6773 H   0  0  0  0  0  0
   70.1913   34.5150   -2.1553 H   0  0  0  0  0  0
   68.4640   33.0339   -0.9442 H   0  0  0  0  0  0
   69.7021   28.9852   -0.4156 H   0  0  0  0  0  0
   72.0784   29.7150   -0.4160 H   0  0  0  0  0  0
  1  2  1  0  0  0
  1  8  2  0  0  0
  1  9  1  0  0  0
  2  3  1  0  0  0
  2 25  1  0  0  0
  2 26  1  0  0  0
  3  4  1  0  0  0
  3 27  1  0  0  0
  3 28  1  0  0  0
  4  5  1  0  0  0
  4 29  1  0  0  0
  4 30  1  0  0  0
  5  6  1  0  0  0
  5 31  1  0  0  0
  5 32  1  0  0  0
  6  7  1  0  0  0
  6 33  1  0  0  0
  6 34  1  0  0  0
  7 11  1  0  0  0
  7 35  1  0  0  0
  7 36  1  0  0  0
  9 10  1  0  0  0
  9 37  1  0  0  0
 10 38  1  0  0  0
 11 12  1  0  0  0
 11 39  1  0  0  0
 12 20  1  0  0  0
 12 24  2  0  0  0
 13 14  1  0  0  0
 13 23  1  0  0  0
 13 40  1  0  0  0
 14 15  2  0  0  0
 14 16  1  0  0  0
 16 17  2  0  0  0
 16 41  1  0  0  0
 17 18  1  0  0  0
 17 42  1  0  0  0
 18 19  1  0  0  0
 18 23  2  0  0  0
 19 20  2  0  0  0
 19 43  1  0  0  0
 20 21  1  0  0  0
 21 22  2  0  0  0
 21 44  1  0  0  0
 22 23  1  0  0  0
 22 45  1  0  0  0
M  END
> <s_m_entry_id>
52332

> <s_m_entry_name>
dock_pv.54

> <s_m_Source_Path>
/home/csk/Desktop/cluster/DUD-E-result/hdac2

> <s_m_Source_File>
dock_pv.maegz

> <i_m_Source_File_Index>
54

> <chembl_id>
CHEMBL3311471

> <chembl_pref_name>
None

> <i_lp_mmshare_version>
53161

> <i_f3d_flags>
0

> <r_lp_tautomer_probability>
1

> <s_lp_Force_Field>
OPLS_2005

> <r_lp_Energy>
24.636679

> <b_lp_Chiralities_Consistent>
1

> <s_lp_Variant>
CHEMBL1937_lig462-1

> <s_i_glide_gridfile>
glide-grid_3max

> <i_i_glide_lignum>
518

> <i_i_glide_rotatable_bonds>
11

> <r_i_docking_score>
-7.82625834617336

> <r_i_glide_ligand_efficiency>
-0.326094097757223

> <r_i_glide_ligand_efficiency_sa>
-0.940618143743829

> <r_i_glide_ligand_efficiency_ln>
-1.87318274583398

> <r_i_glide_gscore>
-7.82625834617336

> <r_i_glide_lipo>
-2.65699252964612

> <r_i_glide_hbond>
-0.32

> <r_i_glide_metal>
-2.3

> <r_i_glide_rewards>
-1.54481485509547

> <r_i_glide_evdw>
-19.7165718078613

> <r_i_glide_ecoul>
-8.60140991210938

> <r_i_glide_erotb>
1.54260221014926

> <r_i_glide_esite>
-0.271013094371552

> <r_i_glide_emodel>
-25.4085977102969

> <r_i_glide_energy>
-28.3179817199707

> <r_i_glide_einternal>
10.9270324707031

> <i_i_glide_confnum>
7

> <i_i_glide_posenum>
55

> <r_i_glide_eff_state_penalty>
0

> <s_user_duplicate_titles>
CHEMBL1937_lig462

> <s_m_subgroup_title>
dock_pv

> <s_m_subgroupid>
dock_pv

> <b_m_subgroup_collapsed>
1

$$$$
CHEMBL1937_lig813
                    3D
 Schrodinger Suite 2021-1.
 24 24  0  0  1  0            999 V2000
   66.4801   29.6940   -0.0450 C   0  0  0  0  0  0
   67.8751   30.0146   -0.1986 C   0  0  0  0  0  0
   68.3110   31.2413   -0.5547 C   0  0  0  0  0  0
   65.6181   30.1150   -0.8160 O   0  0  0  0  0  0
   66.2180   28.9150    1.0166 N   0  0  0  0  0  0
   69.7270   31.6395   -0.7242 C   0  0  0  0  0  0
   70.0140   32.9150   -1.2160 C   0  0  0  0  0  0
   71.3312   33.3150   -1.4232 C   0  0  0  0  0  0
   72.3856   32.4482   -1.1257 C   0  0  0  0  0  0
   72.1070   31.1807   -0.6077 C   0  0  0  0  0  0
   70.7882   30.7795   -0.4160 C   0  0  0  0  0  0
   73.8233   32.8977   -1.3803 C   0  0  0  0  0  0
   73.9385   33.3479   -2.6310 F   0  0  0  0  0  0
   74.1323   33.8844   -0.5390 F   0  0  0  0  0  0
   74.7041   31.9095   -1.2160 F   0  0  0  0  0  0
   64.8892   28.5367    1.2679 O   0  0  0  0  0  0
   68.5681   29.2123   -0.0160 H   0  0  0  0  0  0
   67.5826   32.0234   -0.7272 H   0  0  0  0  0  0
   66.8893   28.5186    1.6644 H   0  0  0  0  0  0
   69.2174   33.6042   -1.4564 H   0  0  0  0  0  0
   71.5329   34.3015   -1.8162 H   0  0  0  0  0  0
   72.9074   30.4955   -0.3631 H   0  0  0  0  0  0
   70.6109   29.7894   -0.0289 H   0  0  0  0  0  0
   64.8606   27.6106    1.0099 H   0  0  0  0  0  0
  1  2  1  0  0  0
  1  4  2  0  0  0
  1  5  1  0  0  0
  2  3  2  0  0  0
  2 17  1  0  0  0
  3  6  1  0  0  0
  3 18  1  0  0  0
  5 16  1  0  0  0
  5 19  1  0  0  0
  6  7  1  0  0  0
  6 11  2  0  0  0
  7  8  2  0  0  0
  7 20  1  0  0  0
  8  9  1  0  0  0
  8 21  1  0  0  0
  9 10  2  0  0  0
  9 12  1  0  0  0
 10 11  1  0  0  0
 10 22  1  0  0  0
 11 23  1  0  0  0
 12 13  1  0  0  0
 12 14  1  0  0  0
 12 15  1  0  0  0
 16 24  1  0  0  0
M  END
> <s_m_entry_id>
52334

> <s_m_entry_name>
dock_pv.56

> <s_m_Source_Path>
/home/csk/Desktop/cluster/DUD-E-result/hdac2

> <s_m_Source_File>
dock_pv.maegz

> <i_m_Source_File_Index>
56

> <chembl_id>
CHEMBL3394285

> <chembl_pref_name>
None

> <i_lp_mmshare_version>
53161

> <i_f3d_flags>
0

> <r_lp_tautomer_probability>
1

> <s_lp_Force_Field>
OPLS_2005

> <r_lp_Energy>
13.986318

> <b_lp_Chiralities_Consistent>
1

> <s_lp_Variant>
CHEMBL1937_lig813-1

> <s_i_glide_gridfile>
glide-grid_3max

> <i_i_glide_lignum>
886

> <i_i_glide_rotatable_bonds>
5

> <r_i_docking_score>
-7.81308403130154

> <r_i_glide_ligand_efficiency>
-0.488317751956346

> <r_i_glide_ligand_efficiency_sa>
-1.23048362831708

> <r_i_glide_ligand_efficiency_ln>
-2.07101399239271

> <r_i_glide_gscore>
-7.81308403130154

> <r_i_glide_lipo>
-1.42880232823959

> <r_i_glide_hbond>
-0.270792838589111

> <r_i_glide_metal>
-2.3

> <r_i_glide_rewards>
-2.20792329893114

> <r_i_glide_evdw>
-22.99582862854

> <r_i_glide_ecoul>
-8.74214458465576

> <r_i_glide_erotb>
0.960065707462927

> <r_i_glide_esite>
-0.104518153879263

> <r_i_glide_emodel>
-50.0851347925745

> <r_i_glide_energy>
-31.7379732131958

> <r_i_glide_einternal>
4.37005758285522

> <i_i_glide_confnum>
17

> <i_i_glide_posenum>
117

> <r_i_glide_eff_state_penalty>
0

> <s_user_duplicate_titles>
CHEMBL1937_lig813

> <s_m_subgroup_title>
dock_pv

> <s_m_subgroupid>
dock_pv

> <b_m_subgroup_collapsed>
1

$$$$
CHEMBL1937_lig700
                    3D
 Schrodinger Suite 2021-1.
 34 36  0  0  1  0            999 V2000
   65.7201   28.7857    0.2515 O   0  0  0  0  0  0
   67.0180   29.3150    0.3840 N   0  0  0  0  0  0
   67.4023   30.3017   -0.4411 C   0  0  0  0  0  0
   66.6178   30.8243   -1.2160 O   0  0  0  0  0  0
   68.8031   30.8380   -0.3866 C   0  0  0  0  0  0
   69.9212   30.0144   -0.4160 C   0  0  0  0  0  0
   71.1900   30.4949   -0.4160 N   0  0  0  0  0  0
   71.3456   31.8366   -0.4160 C   0  0  0  0  0  0
   72.6832   32.2565   -0.3967 N   0  0  0  0  0  0
   73.1306   33.6367   -0.5783 C   0  0  0  0  0  0
   73.4180   34.3984    0.7087 C   0  0  0  0  0  0
   74.5573   33.8803   -0.1207 C   0  0  0  0  0  0
   72.6873   34.3276   -1.8819 C   0  0  0  0  0  0
   72.5115   35.7150   -1.9673 C   0  0  0  0  0  0
   72.1095   36.3096   -3.1651 C   0  0  0  0  0  0
   71.8750   38.0167   -3.2410 Cl  0  0  0  0  0  0
   71.8825   35.5252   -4.2954 C   0  0  0  0  0  0
   72.0725   34.1461   -4.2302 C   0  0  0  0  0  0
   71.8180   33.1511   -5.6160 Cl  0  0  0  0  0  0
   72.4745   33.5608   -3.0335 C   0  0  0  0  0  0
   70.3205   32.7325   -0.4391 N   0  0  0  0  0  0
   69.0613   32.2130   -0.4160 C   0  0  0  0  0  0
   65.8619   27.9233   -0.1538 H   0  0  0  0  0  0
   67.5941   28.8500    1.0844 H   0  0  0  0  0  0
   69.8144   28.9459   -0.4957 H   0  0  0  0  0  0
   73.3936   31.5465   -0.2852 H   0  0  0  0  0  0
   73.2682   35.4743    0.7721 H   0  0  0  0  0  0
   73.2299   33.9100    1.6648 H   0  0  0  0  0  0
   75.1474   33.0513    0.2759 H   0  0  0  0  0  0
   75.1727   34.5974   -0.6647 H   0  0  0  0  0  0
   72.6819   36.3452   -1.1105 H   0  0  0  0  0  0
   71.5634   35.9899   -5.2160 H   0  0  0  0  0  0
   72.6180   32.4958   -2.9939 H   0  0  0  0  0  0
   68.2436   32.9150   -0.4204 H   0  0  0  0  0  0
  1  2  1  0  0  0
  1 23  1  0  0  0
  2  3  1  0  0  0
  2 24  1  0  0  0
  3  4  2  0  0  0
  3  5  1  0  0  0
  5  6  2  0  0  0
  5 22  1  0  0  0
  6  7  1  0  0  0
  6 25  1  0  0  0
  7  8  2  0  0  0
  8  9  1  0  0  0
  8 21  1  0  0  0
  9 10  1  0  0  0
  9 26  1  0  0  0
 10 11  1  0  0  0
 10 12  1  0  0  0
 10 13  1  0  0  0
 11 12  1  0  0  0
 11 27  1  0  0  0
 11 28  1  0  0  0
 12 29  1  0  0  0
 12 30  1  0  0  0
 13 14  2  0  0  0
 13 20  1  0  0  0
 14 15  1  0  0  0
 14 31  1  0  0  0
 15 16  1  0  0  0
 15 17  2  0  0  0
 17 18  1  0  0  0
 17 32  1  0  0  0
 18 19  1  0  0  0
 18 20  2  0  0  0
 20 33  1  0  0  0
 21 22  2  0  0  0
 22 34  1  0  0  0
M  END
> <s_m_entry_id>
52335

> <s_m_entry_name>
dock_pv.57

> <s_m_Source_Path>
/home/csk/Desktop/cluster/DUD-E-result/hdac2

> <s_m_Source_File>
dock_pv.maegz

> <i_m_Source_File_Index>
57

> <chembl_id>
CHEMBL3656015

> <chembl_pref_name>
None

> <i_lp_mmshare_version>
53161

> <i_f3d_flags>
0

> <r_lp_tautomer_probability>
0.999999987636

> <s_lp_Force_Field>
OPLS_2005

> <r_lp_Energy>
19.539738

> <b_lp_Chiralities_Consistent>
1

> <s_lp_Variant>
CHEMBL1937_lig700-1

> <s_i_glide_gridfile>
glide-grid_3max

> <i_i_glide_lignum>
771

> <i_i_glide_rotatable_bonds>
6

> <r_i_docking_score>
-7.78474020433287

> <r_i_glide_ligand_efficiency>
-0.353851827469676

> <r_i_glide_ligand_efficiency_sa>
-0.99150673677272

> <r_i_glide_ligand_efficiency_ln>
-1.90287446123724

> <r_i_glide_gscore>
-7.78474020433287

> <r_i_glide_lipo>
-1.73087227120397

> <r_i_glide_hbond>
-0.32

> <r_i_glide_metal>
-2.3

> <r_i_glide_rewards>
-1.17037183007471

> <r_i_glide_evdw>
-25.4240455627441

> <r_i_glide_ecoul>
-10.8879270553589

> <r_i_glide_erotb>
0.822379345380821

> <r_i_glide_esite>
-0.181484111993971

> <r_i_glide_emodel>
-52.6479318831611

> <r_i_glide_energy>
-36.311972618103

> <r_i_glide_einternal>
5.80611181259155

> <i_i_glide_confnum>
75

> <i_i_glide_posenum>
376

> <r_i_glide_eff_state_penalty>
0

> <s_user_duplicate_titles>
CHEMBL1937_lig700

> <s_m_subgroup_title>
dock_pv

> <s_m_subgroupid>
dock_pv

> <b_m_subgroup_collapsed>
1

$$$$
CHEMBL1937_lig821
                    3D
 Schrodinger Suite 2021-1.
 47 48  0  0  1  0            999 V2000
   68.0136   29.9890   -0.6534 C   0  0  0  0  0  0
   68.4725   31.4357   -0.3868 C   0  0  0  0  0  0
   69.8762   31.7563   -0.9341 C   0  0  0  0  0  0
   71.0142   30.9184   -0.3029 C   0  0  0  0  0  0
   72.4458   31.3160   -0.7354 C   0  0  0  0  0  0
   72.9000   32.6812   -0.1982 C   0  0  0  0  0  0
   73.8180   32.6646    0.7840 N   0  0  0  0  0  0
   72.4205   33.7118   -0.6760 O   0  0  0  0  0  0
   74.2468   33.8888    1.3197 O   0  0  0  0  0  0
   66.5997   29.7149   -0.1293 C   0  0  0  0  0  0
   66.5345   29.1553    1.0878 N   0  0  0  0  0  0
   65.6236   30.0233   -0.8160 O   0  0  0  0  0  0
   65.4007   28.9151    1.7667 N   0  0  0  0  0  0
   65.6518   28.3923    2.9025 C   0  0  0  0  0  0
   64.6544   28.1150    3.9375 C   0  0  0  0  0  0
   65.0816   27.8929    5.2640 C   0  0  0  0  0  0
   64.1924   28.1150    6.3198 C   0  0  0  0  0  0
   62.8642   28.4562    6.0536 C   0  0  0  0  0  0
   62.4135   28.5149    4.7332 C   0  0  0  0  0  0
   63.2949   28.3300    3.6766 C   0  0  0  0  0  0
   61.9013   28.7187    7.1378 C   0  0  0  0  0  0
   61.4181   30.0086    7.3777 C   0  0  0  0  0  0
   60.4382   30.2850    8.2689 N   0  0  0  0  0  0
   59.9465   29.2171    8.9393 C   0  0  0  0  0  0
   60.4113   27.9479    8.8650 N   0  0  0  0  0  0
   61.4177   27.7150    7.9840 C   0  0  0  0  0  0
   68.0518   29.7528   -1.7165 H   0  0  0  0  0  0
   68.7116   29.3057   -0.1739 H   0  0  0  0  0  0
   68.4674   31.6278    0.6876 H   0  0  0  0  0  0
   67.7582   32.1398   -0.8157 H   0  0  0  0  0  0
   70.0552   32.8172   -0.7618 H   0  0  0  0  0  0
   69.8887   31.6236   -2.0160 H   0  0  0  0  0  0
   70.8706   29.8727   -0.5765 H   0  0  0  0  0  0
   70.9378   30.9485    0.7859 H   0  0  0  0  0  0
   72.5298   31.3160   -1.8225 H   0  0  0  0  0  0
   73.1414   30.5485   -0.3889 H   0  0  0  0  0  0
   74.3003   31.8614    1.1839 H   0  0  0  0  0  0
   75.1713   33.9378    1.0596 H   0  0  0  0  0  0
   67.3880   28.9149    1.5813 H   0  0  0  0  0  0
   66.6603   28.1151    3.2090 H   0  0  0  0  0  0
   66.1211   27.7075    5.4875 H   0  0  0  0  0  0
   64.5429   28.0404    7.3392 H   0  0  0  0  0  0
   61.3737   28.7187    4.5221 H   0  0  0  0  0  0
   62.9357   28.4722    2.6674 H   0  0  0  0  0  0
   61.8500   30.8507    6.8644 H   0  0  0  0  0  0
   59.1367   29.3907    9.6286 H   0  0  0  0  0  0
   61.7871   26.7003    7.9840 H   0  0  0  0  0  0
  1  2  1  0  0  0
  1 10  1  0  0  0
  1 27  1  0  0  0
  1 28  1  0  0  0
  2  3  1  0  0  0
  2 29  1  0  0  0
  2 30  1  0  0  0
  3  4  1  0  0  0
  3 31  1  0  0  0
  3 32  1  0  0  0
  4  5  1  0  0  0
  4 33  1  0  0  0
  4 34  1  0  0  0
  5  6  1  0  0  0
  5 35  1  0  0  0
  5 36  1  0  0  0
  6  7  1  0  0  0
  6  8  2  0  0  0
  7  9  1  0  0  0
  7 37  1  0  0  0
  9 38  1  0  0  0
 10 11  1  0  0  0
 10 12  2  0  0  0
 11 13  1  0  0  0
 11 39  1  0  0  0
 13 14  2  0  0  0
 14 15  1  0  0  0
 14 40  1  0  0  0
 15 16  2  0  0  0
 15 20  1  0  0  0
 16 17  1  0  0  0
 16 41  1  0  0  0
 17 18  2  0  0  0
 17 42  1  0  0  0
 18 19  1  0  0  0
 18 21  1  0  0  0
 19 20  2  0  0  0
 19 43  1  0  0  0
 20 44  1  0  0  0
 21 22  2  0  0  0
 21 26  1  0  0  0
 22 23  1  0  0  0
 22 45  1  0  0  0
 23 24  2  0  0  0
 24 25  1  0  0  0
 24 46  1  0  0  0
 25 26  2  0  0  0
 26 47  1  0  0  0
M  END
> <s_m_entry_id>
52336

> <s_m_entry_name>
dock_pv.58

> <s_m_Source_Path>
/home/csk/Desktop/cluster/DUD-E-result/hdac2

> <s_m_Source_File>
dock_pv.maegz

> <i_m_Source_File_Index>
58

> <chembl_id>
CHEMBL3758492

> <chembl_pref_name>
None

> <i_lp_mmshare_version>
53161

> <i_f3d_flags>
0

> <r_lp_tautomer_probability>
1

> <s_lp_Force_Field>
OPLS_2005

> <r_lp_Energy>
15.476777

> <b_lp_Chiralities_Consistent>
1

> <s_lp_Variant>
CHEMBL1937_lig821-1

> <s_i_glide_gridfile>
glide-grid_3max

> <i_i_glide_lignum>
894

> <i_i_glide_rotatable_bonds>
12

> <r_i_docking_score>
-7.77680696380981

> <r_i_glide_ligand_efficiency>
-0.299107960146531

> <r_i_glide_ligand_efficiency_sa>
-0.886106155001107

> <r_i_glide_ligand_efficiency_ln>
-1.82635759766576

> <r_i_glide_gscore>
-7.77680696380981

> <r_i_glide_lipo>
-2.08430231197485

> <r_i_glide_hbond>
-0.456

> <r_i_glide_metal>
-2.3

> <r_i_glide_rewards>
-1.56930286079409

> <r_i_glide_evdw>
-17.6046924591064

> <r_i_glide_ecoul>
-13.0496959686279

> <r_i_glide_erotb>
1.66520541223264

> <r_i_glide_esite>
-0.194718185023997

> <r_i_glide_emodel>
-27.5261626389444

> <r_i_glide_energy>
-30.6543884277344

> <r_i_glide_einternal>
10.6744918823242

> <i_i_glide_confnum>
31

> <i_i_glide_posenum>
155

> <r_i_glide_eff_state_penalty>
0

> <s_user_duplicate_titles>
CHEMBL1937_lig821

> <s_m_subgroup_title>
dock_pv

> <s_m_subgroupid>
dock_pv

> <b_m_subgroup_collapsed>
1

$$$$
CHEMBL1937_lig208
                    3D
 Schrodinger Suite 2021-1.
 39 40  0  0  1  0            999 V2000
   63.7572   28.1561    2.9304 C   0  0  0  0  0  0
   63.1506   27.4736    1.9358 O   0  0  0  0  0  0
   63.8183   27.7150    0.7314 N   0  0  0  0  0  0
   64.8345   28.5085    1.0030 C   0  0  0  0  0  0
   64.8766   28.7656    2.3845 C   0  0  0  0  0  0
   63.0841   28.1728    4.2690 C   0  0  0  0  0  0
   61.6982   28.3294    4.3496 C   0  0  0  0  0  0
   61.0787   28.5150    5.5842 C   0  0  0  0  0  0
   61.8432   28.5150    6.7489 C   0  0  0  0  0  0
   63.2184   28.3000    6.6871 C   0  0  0  0  0  0
   63.8309   28.1150    5.4533 C   0  0  0  0  0  0
   65.6898   29.0925   -0.0148 C   0  0  0  0  0  0
   66.9371   29.3860    0.3836 N   0  0  0  0  0  0
   68.0042   29.8927   -0.4851 C   0  0  0  0  0  0
   68.3333   31.3780   -0.2796 C   0  0  0  0  0  0
   69.6560   31.8206   -0.9374 C   0  0  0  0  0  0
   70.9190   31.1924   -0.2986 C   0  0  0  0  0  0
   72.2322   31.7726   -0.8397 C   0  0  0  0  0  0
   73.2472   31.8618    0.0367 N   0  0  0  0  0  0
   72.3079   32.1151   -2.0214 O   0  0  0  0  0  0
   74.4899   32.3281   -0.4160 O   0  0  0  0  0  0
   65.2984   29.3150   -1.1639 O   0  0  0  0  0  0
   65.5838   29.3890    2.9067 H   0  0  0  0  0  0
   61.0964   28.3307    3.4530 H   0  0  0  0  0  0
   60.0054   28.6312    5.6373 H   0  0  0  0  0  0
   61.3585   28.6390    7.7062 H   0  0  0  0  0  0
   63.8180   28.2641    7.5840 H   0  0  0  0  0  0
   64.9015   27.9708    5.4125 H   0  0  0  0  0  0
   67.2541   29.0409    1.2827 H   0  0  0  0  0  0
   67.8263   29.7150   -1.5472 H   0  0  0  0  0  0
   68.8872   29.2967   -0.2633 H   0  0  0  0  0  0
   68.3689   31.6051    0.7840 H   0  0  0  0  0  0
   67.5172   31.9769   -0.6856 H   0  0  0  0  0  0
   69.7195   32.9089   -0.8716 H   0  0  0  0  0  0
   69.6339   31.5809   -2.0018 H   0  0  0  0  0  0
   70.9510   30.1206   -0.4934 H   0  0  0  0  0  0
   70.8826   31.3151    0.7840 H   0  0  0  0  0  0
   73.2691   31.5721    1.0058 H   0  0  0  0  0  0
   75.0751   31.5763   -0.2689 H   0  0  0  0  0  0
  1  6  1  0  0  0
  1  2  1  0  0  0
  1  5  2  0  0  0
  2  3  1  0  0  0
  3  4  2  0  0  0
  4 12  1  0  0  0
  4  5  1  0  0  0
  5 23  1  0  0  0
  6 11  1  0  0  0
  6  7  2  0  0  0
  7  8  1  0  0  0
  7 24  1  0  0  0
  8  9  2  0  0  0
  8 25  1  0  0  0
  9 10  1  0  0  0
  9 26  1  0  0  0
 10 11  2  0  0  0
 10 27  1  0  0  0
 11 28  1  0  0  0
 12 13  1  0  0  0
 12 22  2  0  0  0
 13 14  1  0  0  0
 13 29  1  0  0  0
 14 15  1  0  0  0
 14 30  1  0  0  0
 14 31  1  0  0  0
 15 16  1  0  0  0
 15 32  1  0  0  0
 15 33  1  0  0  0
 16 17  1  0  0  0
 16 34  1  0  0  0
 16 35  1  0  0  0
 17 18  1  0  0  0
 17 36  1  0  0  0
 17 37  1  0  0  0
 18 19  1  0  0  0
 18 20  2  0  0  0
 19 21  1  0  0  0
 19 38  1  0  0  0
 21 39  1  0  0  0
M  END
> <s_m_entry_id>
52337

> <s_m_entry_name>
dock_pv.59

> <s_m_Source_Path>
/home/csk/Desktop/cluster/DUD-E-result/hdac2

> <s_m_Source_File>
dock_pv.maegz

> <i_m_Source_File_Index>
59

> <chembl_id>
CHEMBL467998

> <chembl_pref_name>
None

> <i_lp_mmshare_version>
53161

> <i_f3d_flags>
0

> <r_lp_tautomer_probability>
1

> <s_lp_Force_Field>
OPLS_2005

> <r_lp_Energy>
16.484635

> <b_lp_Chiralities_Consistent>
1

> <s_lp_Variant>
CHEMBL1937_lig208-1

> <s_i_glide_gridfile>
glide-grid_3max

> <i_i_glide_lignum>
242

> <i_i_glide_rotatable_bonds>
10

> <r_i_docking_score>
-7.75769311148153

> <r_i_glide_ligand_efficiency>
-0.352622414158252

> <r_i_glide_ligand_efficiency_sa>
-0.988061872324027

> <r_i_glide_ligand_efficiency_ln>
-1.89626316517769

> <r_i_glide_gscore>
-7.75769311148153

> <r_i_glide_lipo>
-2.02773240693046

> <r_i_glide_hbond>
-0.244356377414223

> <r_i_glide_metal>
-2.3

> <r_i_glide_rewards>
-1.72861086263262

> <r_i_glide_evdw>
-26.356330871582

> <r_i_glide_ecoul>
-11.9478282928467

> <r_i_glide_erotb>
1.80249843702551

> <r_i_glide_esite>
-0.14950111402364

> <r_i_glide_emodel>
-52.9170385371169

> <r_i_glide_energy>
-38.3041591644287

> <r_i_glide_einternal>
10.7290449142456

> <i_i_glide_confnum>
103

> <i_i_glide_posenum>
270

> <r_i_glide_eff_state_penalty>
0

> <s_user_duplicate_titles>
CHEMBL1937_lig208

> <s_m_subgroup_title>
dock_pv

> <s_m_subgroupid>
dock_pv

> <b_m_subgroup_collapsed>
1

$$$$
CHEMBL1937_lig790
                    3D
 Schrodinger Suite 2021-1.
 34 36  0  0  1  0            999 V2000
   65.7187   28.7884    0.2568 O   0  0  0  0  0  0
   67.0180   29.3150    0.3840 N   0  0  0  0  0  0
   67.4000   30.3002   -0.4425 C   0  0  0  0  0  0
   66.6162   30.8260   -1.2160 O   0  0  0  0  0  0
   68.8030   30.8252   -0.3910 C   0  0  0  0  0  0
   69.9123   29.9874   -0.4160 C   0  0  0  0  0  0
   71.1850   30.4557   -0.4160 N   0  0  0  0  0  0
   71.3532   31.7956   -0.4160 C   0  0  0  0  0  0
   72.6939   32.2064   -0.4177 N   0  0  0  0  0  0
   73.1363   33.5856   -0.6193 C   0  0  0  0  0  0
   73.4180   34.3545    0.6638 C   0  0  0  0  0  0
   74.5617   33.8487   -0.1690 C   0  0  0  0  0  0
   72.6614   34.2749   -1.9158 C   0  0  0  0  0  0
   72.6180   35.6726   -2.0371 C   0  0  0  0  0  0
   72.1794   36.2729   -3.2191 C   0  0  0  0  0  0
   71.7701   35.4844   -4.2940 C   0  0  0  0  0  0
   71.8185   34.0965   -4.1906 C   0  0  0  0  0  0
   71.4180   33.3150   -5.2160 F   0  0  0  0  0  0
   72.2740   33.5016   -3.0200 C   0  0  0  0  0  0
   70.3370   32.7022   -0.4328 N   0  0  0  0  0  0
   69.0724   32.1994   -0.4160 C   0  0  0  0  0  0
   65.8571   27.9256   -0.1489 H   0  0  0  0  0  0
   67.5957   28.8495    1.0826 H   0  0  0  0  0  0
   69.8009   28.9150   -0.4574 H   0  0  0  0  0  0
   73.4046   31.4947   -0.3206 H   0  0  0  0  0  0
   73.2425   35.4269    0.7224 H   0  0  0  0  0  0
   73.2395   33.8662    1.6219 H   0  0  0  0  0  0
   75.1630   33.0273    0.2265 H   0  0  0  0  0  0
   75.1659   34.5713   -0.7181 H   0  0  0  0  0  0
   72.9241   36.3109   -1.2237 H   0  0  0  0  0  0
   72.1444   37.3498   -3.2984 H   0  0  0  0  0  0
   71.4140   35.9472   -5.2027 H   0  0  0  0  0  0
   72.3070   32.4240   -2.9732 H   0  0  0  0  0  0
   68.2692   32.9222   -0.4210 H   0  0  0  0  0  0
  1  2  1  0  0  0
  1 22  1  0  0  0
  2  3  1  0  0  0
  2 23  1  0  0  0
  3  4  2  0  0  0
  3  5  1  0  0  0
  5  6  2  0  0  0
  5 21  1  0  0  0
  6  7  1  0  0  0
  6 24  1  0  0  0
  7  8  2  0  0  0
  8  9  1  0  0  0
  8 20  1  0  0  0
  9 10  1  0  0  0
  9 25  1  0  0  0
 10 11  1  0  0  0
 10 12  1  0  0  0
 10 13  1  0  0  0
 11 12  1  0  0  0
 11 26  1  0  0  0
 11 27  1  0  0  0
 12 28  1  0  0  0
 12 29  1  0  0  0
 13 14  2  0  0  0
 13 19  1  0  0  0
 14 15  1  0  0  0
 14 30  1  0  0  0
 15 16  2  0  0  0
 15 31  1  0  0  0
 16 17  1  0  0  0
 16 32  1  0  0  0
 17 18  1  0  0  0
 17 19  2  0  0  0
 19 33  1  0  0  0
 20 21  2  0  0  0
 21 34  1  0  0  0
M  END
> <s_m_entry_id>
52338

> <s_m_entry_name>
dock_pv.60

> <s_m_Source_Path>
/home/csk/Desktop/cluster/DUD-E-result/hdac2

> <s_m_Source_File>
dock_pv.maegz

> <i_m_Source_File_Index>
60

> <chembl_id>
CHEMBL3655964

> <chembl_pref_name>
None

> <i_lp_mmshare_version>
53161

> <i_f3d_flags>
0

> <r_lp_tautomer_probability>
0.999999987636

> <s_lp_Force_Field>
OPLS_2005

> <r_lp_Energy>
20.797739

> <b_lp_Chiralities_Consistent>
1

> <s_lp_Variant>
CHEMBL1937_lig790-1

> <s_i_glide_gridfile>
glide-grid_3max

> <i_i_glide_lignum>
863

> <i_i_glide_rotatable_bonds>
6

> <r_i_docking_score>
-7.75207093241792

> <r_i_glide_ligand_efficiency>
-0.369146234877044

> <r_i_glide_ligand_efficiency_sa>
-1.01844647098878

> <r_i_glide_ligand_efficiency_ln>
-1.91668387350606

> <r_i_glide_gscore>
-7.75207093241792

> <r_i_glide_lipo>
-1.61109510249051

> <r_i_glide_hbond>
-0.32

> <r_i_glide_metal>
-2.3

> <r_i_glide_rewards>
-1.51791176011903

> <r_i_glide_evdw>
-23.6388835906982

> <r_i_glide_ecoul>
-11.5576019287109

> <r_i_glide_erotb>
1.09442087716645

> <r_i_glide_esite>
-0.181900478133286

> <r_i_glide_emodel>
-51.7335479232006

> <r_i_glide_energy>
-35.1964855194092

> <r_i_glide_einternal>
5.36690759658813

> <i_i_glide_confnum>
70

> <i_i_glide_posenum>
170

> <r_i_glide_eff_state_penalty>
0

> <s_user_duplicate_titles>
CHEMBL1937_lig790

> <s_m_subgroup_title>
dock_pv

> <s_m_subgroupid>
dock_pv

> <b_m_subgroup_collapsed>
1

$$$$
CHEMBL1937_lig70 
                    3D
 Schrodinger Suite 2021-1.
 37 38  0  0  1  0            999 V2000
   60.8595   28.4912    5.2041 C   0  0  0  0  0  0
   61.4178   28.5302    6.4787 C   0  0  0  0  0  0
   62.7841   28.3406    6.6393 C   0  0  0  0  0  0
   63.5920   28.1150    5.5474 C   0  0  0  0  0  0
   63.0672   28.1150    4.2506 C   0  0  0  0  0  0
   61.6771   28.2309    4.1044 C   0  0  0  0  0  0
   63.9865   28.0846    3.0712 C   0  0  0  0  0  0
   63.5464   27.7149    1.8024 C   0  0  0  0  0  0
   64.2728   28.0390    0.6639 C   0  0  0  0  0  0
   65.4814   28.7265    0.7946 C   0  0  0  0  0  0
   66.0114   28.9163    2.0709 C   0  0  0  0  0  0
   65.3088   28.5154    3.1849 C   0  0  0  0  0  0
   66.2198   29.2086   -0.4200 C   0  0  0  0  0  0
   67.3627   29.8884   -0.1750 N   0  0  0  0  0  0
   65.8178   28.9150   -1.5509 O   0  0  0  0  0  0
   68.3064   30.1151   -1.1786 N   0  0  1  0  0  0
   69.6071   30.4002   -0.5794 C   0  0  0  0  0  0
   70.3399   31.5055   -1.3538 C   0  0  0  0  0  0
   69.7913   32.9107   -1.0561 C   0  0  0  0  0  0
   59.7903   28.5886    5.0756 H   0  0  0  0  0  0
   60.7838   28.6739    7.3419 H   0  0  0  0  0  0
   63.2664   28.3188    7.5840 H   0  0  0  0  0  0
   64.6454   27.9685    5.7308 H   0  0  0  0  0  0
   61.2113   28.1580    3.1374 H   0  0  0  0  0  0
   62.6181   27.2005    1.6894 H   0  0  0  0  0  0
   63.8672   27.7904   -0.3084 H   0  0  0  0  0  0
   66.9746   29.3755    2.2369 H   0  0  0  0  0  0
   65.7912   28.7051    4.1312 H   0  0  0  0  0  0
   67.8068   29.7645    0.7252 H   0  0  0  0  0  0
   68.3822   29.2574   -1.7236 H   0  0  0  0  0  0
   70.1965   29.4825   -0.5764 H   0  0  0  0  0  0
   69.5245   30.7049    0.4671 H   0  0  0  0  0  0
   70.3098   31.3014   -2.4242 H   0  0  0  0  0  0
   71.3954   31.4857   -1.0781 H   0  0  0  0  0  0
   70.2675   33.6618   -1.6867 H   0  0  0  0  0  0
   69.9777   33.1862   -0.0176 H   0  0  0  0  0  0
   68.7147   32.9705   -1.2147 H   0  0  0  0  0  0
  1  2  2  0  0  0
  1  6  1  0  0  0
  1 20  1  0  0  0
  2  3  1  0  0  0
  2 21  1  0  0  0
  3  4  2  0  0  0
  3 22  1  0  0  0
  4  5  1  0  0  0
  4 23  1  0  0  0
  5  6  2  0  0  0
  5  7  1  0  0  0
  6 24  1  0  0  0
  7  8  2  0  0  0
  7 12  1  0  0  0
  8  9  1  0  0  0
  8 25  1  0  0  0
  9 10  2  0  0  0
  9 26  1  0  0  0
 10 11  1  0  0  0
 10 13  1  0  0  0
 11 12  2  0  0  0
 11 27  1  0  0  0
 12 28  1  0  0  0
 13 14  1  0  0  0
 13 15  2  0  0  0
 14 16  1  0  0  0
 14 29  1  0  0  0
 16 17  1  0  0  0
 16 30  1  0  0  0
 17 18  1  0  0  0
 17 31  1  0  0  0
 17 32  1  0  0  0
 18 19  1  0  0  0
 18 33  1  0  0  0
 18 34  1  0  0  0
 19 35  1  0  0  0
 19 36  1  0  0  0
 19 37  1  0  0  0
M  END
> <s_m_entry_id>
52339

> <s_m_entry_name>
dock_pv.61

> <s_m_Source_Path>
/home/csk/Desktop/cluster/DUD-E-result/hdac2

> <s_m_Source_File>
dock_pv.maegz

> <i_m_Source_File_Index>
61

> <chembl_id>
CHEMBL4592376

> <chembl_pref_name>
None

> <i_lp_mmshare_version>
53161

> <i_f3d_flags>
0

> <r_lp_tautomer_probability>
1

> <s_lp_Force_Field>
OPLS_2005

> <r_lp_Energy>
18.385594

> <b_lp_Chiralities_Consistent>
1

> <s_lp_Variant>
CHEMBL1937_lig70 -1

> <s_i_glide_gridfile>
glide-grid_3max

> <i_i_glide_lignum>
78

> <i_i_glide_rotatable_bonds>
6

> <r_i_docking_score>
-7.74610676314719

> <r_i_glide_ligand_efficiency>
-0.407689829639326

> <r_i_glide_ligand_efficiency_sa>
-1.08788021250901

> <r_i_glide_ligand_efficiency_ln>
-1.96380443557632

> <r_i_glide_gscore>
-7.74610676314719

> <r_i_glide_lipo>
-2.61191052452744

> <r_i_glide_hbond>
-0.298427660845154

> <r_i_glide_metal>
-2.3

> <r_i_glide_rewards>
-1.73477590315835

> <r_i_glide_evdw>
-15.9380750656128

> <r_i_glide_ecoul>
-7.75643301010132

> <r_i_glide_erotb>
1.35937603017959

> <r_i_glide_esite>
-0.2

> <r_i_glide_emodel>
-32.5459133108974

> <r_i_glide_energy>
-23.6945080757141

> <r_i_glide_einternal>
9.57471752166748

> <i_i_glide_confnum>
40

> <i_i_glide_posenum>
300

> <r_i_glide_eff_state_penalty>
0

> <s_user_duplicate_titles>
CHEMBL1937_lig70 

> <s_m_subgroup_title>
dock_pv

> <s_m_subgroupid>
dock_pv

> <b_m_subgroup_collapsed>
1

$$$$
CHEMBL1937_lig654
                    3D
 Schrodinger Suite 2021-1.
 30 31  0  0  1  0            999 V2000
   65.3751   28.6818    1.1309 O   0  0  0  0  0  0
   66.6180   29.3150    0.9649 N   0  0  0  0  0  0
   66.9553   29.7798   -0.2473 C   0  0  0  0  0  0
   66.2180   29.7150   -1.2160 O   0  0  0  0  0  0
   68.2907   30.4581   -0.3628 C   0  0  0  0  0  0
   69.4617   29.7150   -0.4160 C   0  0  0  0  0  0
   70.6951   30.2727   -0.4160 N   0  0  0  0  0  0
   70.7560   31.6225   -0.4218 C   0  0  0  0  0  0
   72.0573   32.1411   -0.3841 N   0  0  0  0  0  0
   72.3534   33.5709   -0.4539 C   0  0  0  0  0  0
   72.2275   34.1625   -1.8592 C   0  0  0  0  0  0
   72.3072   35.5499   -2.0160 C   0  0  0  0  0  0
   72.2180   36.1291   -3.2830 C   0  0  0  0  0  0
   72.0553   35.3216   -4.4085 C   0  0  0  0  0  0
   71.9946   33.9363   -4.2632 C   0  0  0  0  0  0
   71.8180   32.9150   -5.6356 Cl  0  0  0  0  0  0
   72.0836   33.3611   -2.9998 C   0  0  0  0  0  0
   69.6721   32.4483   -0.4558 N   0  0  0  0  0  0
   68.4508   31.8483   -0.4160 C   0  0  0  0  0  0
   65.5974   27.7474    1.1872 H   0  0  0  0  0  0
   67.2288   29.2502    1.7732 H   0  0  0  0  0  0
   69.4181   28.6379   -0.4160 H   0  0  0  0  0  0
   72.8230   31.4948   -0.2492 H   0  0  0  0  0  0
   71.6967   34.1150    0.2231 H   0  0  0  0  0  0
   73.3704   33.7327   -0.0941 H   0  0  0  0  0  0
   72.4401   36.1829   -1.1512 H   0  0  0  0  0  0
   72.2732   37.2024   -3.3929 H   0  0  0  0  0  0
   71.9857   35.7703   -5.3883 H   0  0  0  0  0  0
   72.0421   32.2854   -2.9158 H   0  0  0  0  0  0
   67.6007   32.5132   -0.4160 H   0  0  0  0  0  0
  1  2  1  0  0  0
  1 20  1  0  0  0
  2  3  1  0  0  0
  2 21  1  0  0  0
  3  4  2  0  0  0
  3  5  1  0  0  0
  5  6  2  0  0  0
  5 19  1  0  0  0
  6  7  1  0  0  0
  6 22  1  0  0  0
  7  8  2  0  0  0
  8  9  1  0  0  0
  8 18  1  0  0  0
  9 10  1  0  0  0
  9 23  1  0  0  0
 10 11  1  0  0  0
 10 24  1  0  0  0
 10 25  1  0  0  0
 11 12  2  0  0  0
 11 17  1  0  0  0
 12 13  1  0  0  0
 12 26  1  0  0  0
 13 14  2  0  0  0
 13 27  1  0  0  0
 14 15  1  0  0  0
 14 28  1  0  0  0
 15 16  1  0  0  0
 15 17  2  0  0  0
 17 29  1  0  0  0
 18 19  2  0  0  0
 19 30  1  0  0  0
M  END
> <s_m_entry_id>
52340

> <s_m_entry_name>
dock_pv.62

> <s_m_Source_Path>
/home/csk/Desktop/cluster/DUD-E-result/hdac2

> <s_m_Source_File>
dock_pv.maegz

> <i_m_Source_File_Index>
62

> <chembl_id>
CHEMBL3655917

> <chembl_pref_name>
None

> <i_lp_mmshare_version>
53161

> <i_f3d_flags>
0

> <r_lp_tautomer_probability>
0.999999987636

> <s_lp_Force_Field>
OPLS_2005

> <r_lp_Energy>
10.531612

> <b_lp_Chiralities_Consistent>
1

> <s_lp_Variant>
CHEMBL1937_lig654-1

> <s_i_glide_gridfile>
glide-grid_3max

> <i_i_glide_lignum>
725

> <i_i_glide_rotatable_bonds>
6

> <r_i_docking_score>
-7.73348604375974

> <r_i_glide_ligand_efficiency>
-0.407025581250513

> <r_i_glide_ligand_efficiency_sa>
-1.08610773101488

> <r_i_glide_ligand_efficiency_ln>
-1.96060481214341

> <r_i_glide_gscore>
-7.73348604375974

> <r_i_glide_lipo>
-1.51361439604788

> <r_i_glide_hbond>
-0.223702270144525

> <r_i_glide_metal>
-2.3

> <r_i_glide_rewards>
-1.69911888577326

> <r_i_glide_evdw>
-24.7201881408691

> <r_i_glide_ecoul>
-11.643141746521

> <r_i_glide_erotb>
1.16069987416197

> <r_i_glide_esite>
-0.175269696934438

> <r_i_glide_emodel>
-53.0393676831122

> <r_i_glide_energy>
-36.3633298873901

> <r_i_glide_einternal>
6.83380031585693

> <i_i_glide_confnum>
4

> <i_i_glide_posenum>
132

> <r_i_glide_eff_state_penalty>
0

> <s_user_duplicate_titles>
CHEMBL1937_lig654

> <s_m_subgroup_title>
dock_pv

> <s_m_subgroupid>
dock_pv

> <b_m_subgroup_collapsed>
1

$$$$
CHEMBL1937_lig74 
                    3D
 Schrodinger Suite 2021-1.
 33 33  0  0  1  0            999 V2000
   71.2077   33.3150   -1.3159 C   0  0  0  0  0  0
   72.4973   32.8755   -1.0308 C   0  0  0  0  0  0
   72.7276   31.5500   -0.6767 C   0  0  0  0  0  0
   71.6585   30.6617   -0.6152 C   0  0  0  0  0  0
   70.3551   31.0958   -0.8694 C   0  0  0  0  0  0
   70.1361   32.4325   -1.2160 C   0  0  0  0  0  0
   69.1933   30.1018   -0.8300 C   0  0  0  0  0  0
   68.0385   30.5173    0.1147 C   0  0  0  0  0  0
   66.7387   29.7150   -0.0991 C   0  0  0  0  0  0
   66.2180   29.0537    0.9578 N   0  0  0  0  0  0
   66.2180   29.7150   -1.2160 O   0  0  0  0  0  0
   65.1397   28.1694    0.7785 N   0  0  2  0  0  0
   63.9930   28.5149    1.6035 C   0  0  0  0  0  0
   64.1498   28.0294    3.0537 C   0  0  0  0  0  0
   62.8824   28.2610    3.8865 C   0  0  0  0  0  0
   71.0400   34.3393   -1.6159 H   0  0  0  0  0  0
   73.3281   33.5629   -1.0966 H   0  0  0  0  0  0
   73.7321   31.2049   -0.4728 H   0  0  0  0  0  0
   71.8621   29.6235   -0.4160 H   0  0  0  0  0  0
   69.1419   32.7889   -1.4356 H   0  0  0  0  0  0
   69.5618   29.1205   -0.5277 H   0  0  0  0  0  0
   68.8380   29.9816   -1.8552 H   0  0  0  0  0  0
   67.8067   31.5629   -0.0744 H   0  0  0  0  0  0
   68.3624   30.5150    1.1562 H   0  0  0  0  0  0
   66.7219   28.9385    1.8277 H   0  0  0  0  0  0
   65.4546   27.2150    0.8952 H   0  0  0  0  0  0
   63.1168   28.0375    1.1645 H   0  0  0  0  0  0
   63.8180   29.5913    1.5840 H   0  0  0  0  0  0
   65.0008   28.5150    3.5319 H   0  0  0  0  0  0
   64.3587   26.9615    3.0555 H   0  0  0  0  0  0
   63.0180   27.9301    4.9165 H   0  0  0  0  0  0
   62.0326   27.7150    3.4739 H   0  0  0  0  0  0
   62.6180   29.3150    3.9147 H   0  0  0  0  0  0
  1  2  2  0  0  0
  1  6  1  0  0  0
  1 16  1  0  0  0
  2  3  1  0  0  0
  2 17  1  0  0  0
  3  4  2  0  0  0
  3 18  1  0  0  0
  4  5  1  0  0  0
  4 19  1  0  0  0
  5  6  2  0  0  0
  5  7  1  0  0  0
  6 20  1  0  0  0
  7  8  1  0  0  0
  7 21  1  0  0  0
  7 22  1  0  0  0
  8  9  1  0  0  0
  8 23  1  0  0  0
  8 24  1  0  0  0
  9 10  1  0  0  0
  9 11  2  0  0  0
 10 12  1  0  0  0
 10 25  1  0  0  0
 12 13  1  0  0  0
 12 26  1  0  0  0
 13 14  1  0  0  0
 13 27  1  0  0  0
 13 28  1  0  0  0
 14 15  1  0  0  0
 14 29  1  0  0  0
 14 30  1  0  0  0
 15 31  1  0  0  0
 15 32  1  0  0  0
 15 33  1  0  0  0
M  END
> <s_m_entry_id>
52341

> <s_m_entry_name>
dock_pv.63

> <s_m_Source_Path>
/home/csk/Desktop/cluster/DUD-E-result/hdac2

> <s_m_Source_File>
dock_pv.maegz

> <i_m_Source_File_Index>
63

> <chembl_id>
CHEMBL4534865

> <chembl_pref_name>
None

> <i_lp_mmshare_version>
53161

> <i_f3d_flags>
0

> <r_lp_tautomer_probability>
1

> <s_lp_Force_Field>
OPLS_2005

> <r_lp_Energy>
9.111736

> <b_lp_Chiralities_Consistent>
1

> <s_lp_Variant>
CHEMBL1937_lig74 -1

> <s_i_glide_gridfile>
glide-grid_3max

> <i_i_glide_lignum>
82

> <i_i_glide_rotatable_bonds>
7

> <r_i_docking_score>
-7.66012825347268

> <r_i_glide_ligand_efficiency>
-0.510675216898179

> <r_i_glide_ligand_efficiency_sa>
-1.25943338483875

> <r_i_glide_ligand_efficiency_ln>
-2.06581028789624

> <r_i_glide_gscore>
-7.66012825347268

> <r_i_glide_lipo>
-2.11282283560665

> <r_i_glide_hbond>
-0.109629091677324

> <r_i_glide_metal>
-2.3

> <r_i_glide_rewards>
-2.28594160606061

> <r_i_glide_evdw>
-26.8834552764893

> <r_i_glide_ecoul>
-8.9105167388916

> <r_i_glide_erotb>
1.93885714550671

> <r_i_glide_esite>
-0.109841590976603

> <r_i_glide_emodel>
-55.7398057534655

> <r_i_glide_energy>
-35.7939720153809

> <r_i_glide_einternal>
5.26182556152344

> <i_i_glide_confnum>
92

> <i_i_glide_posenum>
198

> <r_i_glide_eff_state_penalty>
0

> <s_user_duplicate_titles>
CHEMBL1937_lig74 

> <s_m_subgroup_title>
dock_pv

> <s_m_subgroupid>
dock_pv

> <b_m_subgroup_collapsed>
1

$$$$
CHEMBL1937_lig953
                    3D
 Schrodinger Suite 2021-1.
 50 51  0  0  1  0            999 V2000
   62.7223   27.4615    2.8772 C   0  0  0  0  0  0
   63.9005   27.9636    2.0640 C   0  0  0  0  0  0
   65.0140   28.5150    2.6965 C   0  0  0  0  0  0
   66.0337   29.0869    1.9367 C   0  0  0  0  0  0
   65.9591   29.0936    0.5427 C   0  0  0  0  0  0
   64.8682   28.4790   -0.0788 C   0  0  0  0  0  0
   63.8596   27.8887    0.6744 C   0  0  0  0  0  0
   66.9794   29.8206   -0.2971 C   0  0  0  0  0  0
   66.5945   30.5150   -1.2160 O   0  0  0  0  0  0
   68.2776   29.7150   -0.0160 N   0  0  0  0  0  0
   69.3733   30.1379   -0.8805 C   0  0  0  0  0  0
   69.7354   31.6155   -0.7062 C   0  0  0  0  0  0
   70.8832   32.0537   -1.6296 C   0  0  0  0  0  0
   71.1951   33.5445   -1.4599 C   0  0  0  0  0  0
   72.3151   34.0540   -2.3905 C   0  0  0  0  0  0
   72.6853   35.5181   -2.1156 C   0  0  0  0  0  0
   72.8059   35.8983   -0.9511 O   0  0  0  0  0  0
   72.8474   36.3042   -3.2002 N   0  0  0  0  0  0
   73.1964   37.6722   -3.2603 C   0  0  0  0  0  0
   73.9202   38.3151   -2.2398 C   0  0  0  0  0  0
   74.2775   39.6571   -2.3592 C   0  0  0  0  0  0
   73.9311   40.3721   -3.5025 C   0  0  0  0  0  0
   73.2283   39.7456   -4.5293 C   0  0  0  0  0  0
   72.8606   38.4034   -4.4178 C   0  0  0  0  0  0
   72.1559   37.8316   -5.4812 N   0  0  0  0  0  0
   62.3647   26.5152    2.4948 H   0  0  0  0  0  0
   62.9674   27.3212    3.9261 H   0  0  0  0  0  0
   61.8779   28.1396    2.8083 H   0  0  0  0  0  0
   65.0797   28.5149    3.7739 H   0  0  0  0  0  0
   66.8724   29.5589    2.4215 H   0  0  0  0  0  0
   64.7820   28.4518   -1.1548 H   0  0  0  0  0  0
   63.0208   27.4290    0.1720 H   0  0  0  0  0  0
   68.5391   29.2407    0.8532 H   0  0  0  0  0  0
   69.1465   29.9248   -1.9284 H   0  0  0  0  0  0
   70.2470   29.5200   -0.6683 H   0  0  0  0  0  0
   70.0123   31.7960    0.3343 H   0  0  0  0  0  0
   68.8545   32.2300   -0.9001 H   0  0  0  0  0  0
   70.6212   31.8468   -2.6681 H   0  0  0  0  0  0
   71.7762   31.4636   -1.4149 H   0  0  0  0  0  0
   71.4667   33.7157   -0.4158 H   0  0  0  0  0  0
   70.2836   34.1150   -1.6435 H   0  0  0  0  0  0
   72.0224   33.9213   -3.4333 H   0  0  0  0  0  0
   73.2186   33.4619   -2.2390 H   0  0  0  0  0  0
   72.6457   35.8976   -4.1012 H   0  0  0  0  0  0
   74.2332   37.7876   -1.3521 H   0  0  0  0  0  0
   74.8335   40.1390   -1.5684 H   0  0  0  0  0  0
   74.2133   41.4099   -3.5968 H   0  0  0  0  0  0
   72.9702   40.3131   -5.4117 H   0  0  0  0  0  0
   71.2415   37.4847   -5.2159 H   0  0  0  0  0  0
   72.1441   38.4153   -6.3044 H   0  0  0  0  0  0
  1  2  1  0  0  0
  1 26  1  0  0  0
  1 27  1  0  0  0
  1 28  1  0  0  0
  2  3  2  0  0  0
  2  7  1  0  0  0
  3  4  1  0  0  0
  3 29  1  0  0  0
  4  5  2  0  0  0
  4 30  1  0  0  0
  5  6  1  0  0  0
  5  8  1  0  0  0
  6  7  2  0  0  0
  6 31  1  0  0  0
  7 32  1  0  0  0
  8  9  2  0  0  0
  8 10  1  0  0  0
 10 11  1  0  0  0
 10 33  1  0  0  0
 11 12  1  0  0  0
 11 34  1  0  0  0
 11 35  1  0  0  0
 12 13  1  0  0  0
 12 36  1  0  0  0
 12 37  1  0  0  0
 13 14  1  0  0  0
 13 38  1  0  0  0
 13 39  1  0  0  0
 14 15  1  0  0  0
 14 40  1  0  0  0
 14 41  1  0  0  0
 15 16  1  0  0  0
 15 42  1  0  0  0
 15 43  1  0  0  0
 16 17  2  0  0  0
 16 18  1  0  0  0
 18 19  1  0  0  0
 18 44  1  0  0  0
 19 20  2  0  0  0
 19 24  1  0  0  0
 20 21  1  0  0  0
 20 45  1  0  0  0
 21 22  2  0  0  0
 21 46  1  0  0  0
 22 23  1  0  0  0
 22 47  1  0  0  0
 23 24  2  0  0  0
 23 48  1  0  0  0
 24 25  1  0  0  0
 25 49  1  0  0  0
 25 50  1  0  0  0
M  END
> <s_m_entry_id>
52342

> <s_m_entry_name>
dock_pv.64

> <s_m_Source_Path>
/home/csk/Desktop/cluster/DUD-E-result/hdac2

> <s_m_Source_File>
dock_pv.maegz

> <i_m_Source_File_Index>
64

> <chembl_id>
CHEMBL3970532

> <chembl_pref_name>
None

> <i_lp_mmshare_version>
53161

> <i_f3d_flags>
0

> <r_lp_tautomer_probability>
1

> <s_lp_Force_Field>
OPLS_2005

> <r_lp_Energy>
20.61047

> <b_lp_Chiralities_Consistent>
1

> <s_lp_Variant>
CHEMBL1937_lig953-1

> <s_i_glide_gridfile>
glide-grid_3max

> <i_i_glide_lignum>
1039

> <i_i_glide_rotatable_bonds>
10

> <r_i_docking_score>
-7.65924246764387

> <r_i_glide_ligand_efficiency>
-0.306369698705755

> <r_i_glide_ligand_efficiency_sa>
-0.895830432505369

> <r_i_glide_ligand_efficiency_ln>
-1.8154699938065

> <r_i_glide_gscore>
-7.65924246764387

> <r_i_glide_lipo>
-2.41576818635098

> <r_i_glide_hbond>
-0.481156502748847

> <r_i_glide_metal>
-2.3

> <r_i_glide_rewards>
-1.27034071856879

> <r_i_glide_evdw>
-21.3520183563232

> <r_i_glide_ecoul>
-10.9715156555176

> <r_i_glide_erotb>
1.64256657999462

> <r_i_glide_esite>
-0.121215373826075

> <r_i_glide_emodel>
-41.5584557449553

> <r_i_glide_energy>
-32.3235340118408

> <r_i_glide_einternal>
6.86699056625366

> <i_i_glide_confnum>
101

> <i_i_glide_posenum>
211

> <r_i_glide_eff_state_penalty>
0

> <s_user_duplicate_titles>
CHEMBL1937_lig953

> <s_m_subgroup_title>
dock_pv

> <s_m_subgroupid>
dock_pv

> <b_m_subgroup_collapsed>
1

$$$$
CHEMBL1937_lig155
                    3D
 Schrodinger Suite 2021-1.
 40 40  0  0  1  0            999 V2000
   69.9599   31.4716   -0.7276 C   0  0  0  0  0  0
   70.9659   30.5700   -0.3740 C   0  0  0  0  0  0
   72.3145   30.9150   -0.4602 C   0  0  0  0  0  0
   72.6780   32.1685   -0.9435 C   0  0  0  0  0  0
   71.6914   33.0734   -1.3272 C   0  0  0  0  0  0
   70.3438   32.7293   -1.2197 C   0  0  0  0  0  0
   63.2781   28.3216    5.6802 C   0  0  0  0  0  0
   68.5282   31.1156   -0.5832 C   0  0  0  0  0  0
   68.0096   29.9121   -0.2300 C   0  0  0  0  0  0
   66.5846   29.7150   -0.1385 C   0  0  0  0  0  0
   66.1008   28.8225    0.7367 N   0  0  0  0  0  0
   65.8180   30.3874   -0.8160 O   0  0  0  0  0  0
   64.6454   28.6285    0.8498 C   0  0  0  0  0  0
   64.1850   27.6188    1.8966 C   0  0  0  0  0  0
   64.4456   28.0467    3.3631 C   0  0  0  0  0  0
   63.1404   28.3176    4.1349 C   0  0  0  0  0  0
   62.0317   28.9150    6.3336 C   0  0  0  0  0  0
   62.2176   29.9355    7.1840 N   0  0  0  0  0  0
   60.9235   28.5150    5.9908 O   0  0  0  0  0  0
   61.0889   30.5738    7.7249 O   0  0  0  0  0  0
   69.4180   33.6301   -1.6160 F   0  0  0  0  0  0
   74.3437   32.5944   -1.0815 Cl  0  0  0  0  0  0
   70.6940   29.5963   -0.0160 H   0  0  0  0  0  0
   73.0780   30.2071   -0.1675 H   0  0  0  0  0  0
   71.9694   34.0448   -1.7082 H   0  0  0  0  0  0
   63.4180   27.3150    6.0582 H   0  0  0  0  0  0
   64.1602   28.8574    6.0200 H   0  0  0  0  0  0
   67.8429   31.9313   -0.7775 H   0  0  0  0  0  0
   68.6321   29.0621   -0.0160 H   0  0  0  0  0  0
   66.7245   28.2959    1.3331 H   0  0  0  0  0  0
   64.2180   29.5951    1.1247 H   0  0  0  0  0  0
   64.2140   28.3616   -0.1188 H   0  0  0  0  0  0
   63.1180   27.4511    1.7413 H   0  0  0  0  0  0
   64.6180   26.6537    1.6538 H   0  0  0  0  0  0
   65.0180   27.2899    3.8880 H   0  0  0  0  0  0
   65.0999   28.9150    3.3917 H   0  0  0  0  0  0
   62.7237   29.2606    3.7750 H   0  0  0  0  0  0
   62.4011   27.5597    3.8700 H   0  0  0  0  0  0
   63.0946   30.3368    7.4894 H   0  0  0  0  0  0
   61.0004   30.1789    8.5981 H   0  0  0  0  0  0
  1  6  1  0  0  0
  1  2  2  0  0  0
  1  8  1  0  0  0
  2  3  1  0  0  0
  2 23  1  0  0  0
  3  4  2  0  0  0
  3 24  1  0  0  0
  4  5  1  0  0  0
  4 22  1  0  0  0
  5  6  2  0  0  0
  5 25  1  0  0  0
  6 21  1  0  0  0
  7 16  1  0  0  0
  7 17  1  0  0  0
  7 26  1  0  0  0
  7 27  1  0  0  0
  8  9  2  0  0  0
  8 28  1  0  0  0
  9 10  1  0  0  0
  9 29  1  0  0  0
 10 12  2  0  0  0
 10 11  1  0  0  0
 11 13  1  0  0  0
 11 30  1  0  0  0
 13 14  1  0  0  0
 13 31  1  0  0  0
 13 32  1  0  0  0
 14 15  1  0  0  0
 14 33  1  0  0  0
 14 34  1  0  0  0
 15 16  1  0  0  0
 15 35  1  0  0  0
 15 36  1  0  0  0
 16 37  1  0  0  0
 16 38  1  0  0  0
 17 18  1  0  0  0
 17 19  2  0  0  0
 18 20  1  0  0  0
 18 39  1  0  0  0
 20 40  1  0  0  0
M  END
> <s_m_entry_id>
52343

> <s_m_entry_name>
dock_pv.65

> <s_m_Source_Path>
/home/csk/Desktop/cluster/DUD-E-result/hdac2

> <s_m_Source_File>
dock_pv.maegz

> <i_m_Source_File_Index>
65

> <chembl_id>
CHEMBL484489

> <chembl_pref_name>
None

> <i_lp_mmshare_version>
53161

> <i_f3d_flags>
0

> <r_lp_tautomer_probability>
1

> <s_lp_Force_Field>
OPLS_2005

> <r_lp_Energy>
14.63028

> <b_lp_Chiralities_Consistent>
1

> <s_lp_Variant>
CHEMBL1937_lig155-1

> <s_i_glide_gridfile>
glide-grid_3max

> <i_i_glide_lignum>
184

> <i_i_glide_rotatable_bonds>
11

> <r_i_docking_score>
-7.64096667257602

> <r_i_glide_ligand_efficiency>
-0.347316666935274

> <r_i_glide_ligand_efficiency_sa>
-0.973194959942046

> <r_i_glide_ligand_efficiency_ln>
-1.86773096580887

> <r_i_glide_gscore>
-7.64096667257602

> <r_i_glide_lipo>
-2.61185163037819

> <r_i_glide_hbond>
-0.103217952867316

> <r_i_glide_metal>
-2.3

> <r_i_glide_rewards>
-1.55083251872598

> <r_i_glide_evdw>
-29.5679340362549

> <r_i_glide_ecoul>
-6.62734031677246

> <r_i_glide_erotb>
1.56423165129786

> <r_i_glide_esite>
-0.166798472573789

> <r_i_glide_emodel>
-49.3783331435544

> <r_i_glide_energy>
-36.1952743530273

> <r_i_glide_einternal>
9.09016418457031

> <i_i_glide_confnum>
8

> <i_i_glide_posenum>
227

> <r_i_glide_eff_state_penalty>
0

> <s_user_duplicate_titles>
CHEMBL1937_lig155,500081

> <s_m_subgroup_title>
dock_pv

> <s_m_subgroupid>
dock_pv

> <b_m_subgroup_collapsed>
1

$$$$
CHEMBL1937_lig687
                    3D
 Schrodinger Suite 2021-1.
 34 36  0  0  1  0            999 V2000
   65.7193   28.7874    0.2541 O   0  0  0  0  0  0
   67.0180   29.3151    0.3840 N   0  0  0  0  0  0
   67.4011   30.3008   -0.4417 C   0  0  0  0  0  0
   66.6179   30.8255   -1.2160 O   0  0  0  0  0  0
   68.8027   30.8308   -0.3880 C   0  0  0  0  0  0
   69.0669   32.2047   -0.4160 C   0  0  0  0  0  0
   70.3287   32.7156   -0.4341 N   0  0  0  0  0  0
   71.3491   31.8140   -0.4169 C   0  0  0  0  0  0
   72.6884   32.2286   -0.4302 N   0  0  0  0  0  0
   73.1312   33.6116   -0.6035 C   0  0  0  0  0  0
   73.4180   34.3514    0.6958 C   0  0  0  0  0  0
   74.5585   33.8609   -0.1501 C   0  0  0  0  0  0
   72.6581   34.3328   -1.8841 C   0  0  0  0  0  0
   72.2527   33.5921   -3.0038 C   0  0  0  0  0  0
   71.8198   34.2199   -4.1666 C   0  0  0  0  0  0
   71.4183   33.4703   -5.2160 F   0  0  0  0  0  0
   71.8001   35.6100   -4.2399 C   0  0  0  0  0  0
   72.2180   36.3656   -3.1469 C   0  0  0  0  0  0
   72.2063   37.7153   -3.2160 F   0  0  0  0  0  0
   72.6449   35.7322   -1.9792 C   0  0  0  0  0  0
   71.1868   30.4733   -0.4160 N   0  0  0  0  0  0
   69.9156   30.0003   -0.4160 C   0  0  0  0  0  0
   65.8592   27.9247   -0.1510 H   0  0  0  0  0  0
   67.5948   28.8498    1.0836 H   0  0  0  0  0  0
   68.2555   32.9150   -0.4191 H   0  0  0  0  0  0
   73.3997   31.5179   -0.3295 H   0  0  0  0  0  0
   73.2440   35.4225    0.7782 H   0  0  0  0  0  0
   73.2421   33.8430    1.6438 H   0  0  0  0  0  0
   75.1586   33.0300    0.2270 H   0  0  0  0  0  0
   75.1644   34.5942   -0.6831 H   0  0  0  0  0  0
   72.2611   32.5150   -2.9757 H   0  0  0  0  0  0
   71.4616   36.1039   -5.1381 H   0  0  0  0  0  0
   72.9719   36.3491   -1.1579 H   0  0  0  0  0  0
   69.8023   28.9320   -0.4951 H   0  0  0  0  0  0
  1  2  1  0  0  0
  1 23  1  0  0  0
  2  3  1  0  0  0
  2 24  1  0  0  0
  3  4  2  0  0  0
  3  5  1  0  0  0
  5  6  2  0  0  0
  5 22  1  0  0  0
  6  7  1  0  0  0
  6 25  1  0  0  0
  7  8  2  0  0  0
  8  9  1  0  0  0
  8 21  1  0  0  0
  9 10  1  0  0  0
  9 26  1  0  0  0
 10 11  1  0  0  0
 10 12  1  0  0  0
 10 13  1  0  0  0
 11 12  1  0  0  0
 11 27  1  0  0  0
 11 28  1  0  0  0
 12 29  1  0  0  0
 12 30  1  0  0  0
 13 14  2  0  0  0
 13 20  1  0  0  0
 14 15  1  0  0  0
 14 31  1  0  0  0
 15 16  1  0  0  0
 15 17  2  0  0  0
 17 18  1  0  0  0
 17 32  1  0  0  0
 18 19  1  0  0  0
 18 20  2  0  0  0
 20 33  1  0  0  0
 21 22  2  0  0  0
 22 34  1  0  0  0
M  END
> <s_m_entry_id>
52344

> <s_m_entry_name>
dock_pv.66

> <s_m_Source_Path>
/home/csk/Desktop/cluster/DUD-E-result/hdac2

> <s_m_Source_File>
dock_pv.maegz

> <i_m_Source_File_Index>
66

> <chembl_id>
CHEMBL3656001

> <chembl_pref_name>
None

> <i_lp_mmshare_version>
53161

> <i_f3d_flags>
0

> <r_lp_tautomer_probability>
0.999999987636

> <s_lp_Force_Field>
OPLS_2005

> <r_lp_Energy>
19.998735

> <b_lp_Chiralities_Consistent>
1

> <s_lp_Variant>
CHEMBL1937_lig687-1

> <s_i_glide_gridfile>
glide-grid_3max

> <i_i_glide_lignum>
758

> <i_i_glide_rotatable_bonds>
6

> <r_i_docking_score>
-7.63921791321042

> <r_i_glide_ligand_efficiency>
-0.347237177873201

> <r_i_glide_ligand_efficiency_sa>
-0.97297222846399

> <r_i_glide_ligand_efficiency_ln>
-1.86730350523237

> <r_i_glide_gscore>
-7.63921791321042

> <r_i_glide_lipo>
-1.60766479831737

> <r_i_glide_hbond>
-0.32

> <r_i_glide_metal>
-2.3

> <r_i_glide_rewards>
-1.39504325111653

> <r_i_glide_evdw>
-23.4298763275146

> <r_i_glide_ecoul>
-10.9878101348877

> <r_i_glide_erotb>
0.984516793073655

> <r_i_glide_esite>
-0.181361320241288

> <r_i_glide_emodel>
-50.7736540139997

> <r_i_glide_energy>
-34.4176864624023

> <r_i_glide_einternal>
5.26133584976196

> <i_i_glide_confnum>
45

> <i_i_glide_posenum>
289

> <r_i_glide_eff_state_penalty>
0

> <s_user_duplicate_titles>
CHEMBL1937_lig687

> <s_m_subgroup_title>
dock_pv

> <s_m_subgroupid>
dock_pv

> <b_m_subgroup_collapsed>
1

$$$$
CHEMBL1937_lig430
                    3D
 Schrodinger Suite 2021-1.
 42 42  0  0  1  0            999 V2000
   70.6089   32.7852   -1.0020 C   0  0  0  0  0  0
   69.2529   32.9990   -1.1794 C   0  0  0  0  0  0
   68.3230   32.0204   -0.8163 C   0  0  0  0  0  0
   68.7405   30.7598   -0.3972 C   0  0  0  0  0  0
   70.1158   30.5410   -0.2745 C   0  0  0  0  0  0
   71.0491   31.5640   -0.5001 C   0  0  0  0  0  0
   67.8699   29.7150   -0.0163 N   0  0  0  0  0  0
   66.5406   29.5360   -0.1754 C   0  0  0  0  0  0
   65.9313   28.2566    0.4426 C   0  0  0  0  0  0
   65.8184   30.2882   -0.8159 O   0  0  0  0  0  0
   64.5227   28.3869    1.0531 C   0  0  0  0  0  0
   64.5237   28.3239    2.5919 C   0  0  0  0  0  0
   63.2295   28.8712    3.1880 C   0  0  0  0  0  0
   62.1059   27.8761    3.5616 C   0  0  0  0  0  0
   61.2916   28.1462    4.8748 C   0  0  0  0  0  0
   62.0879   28.5835    6.1324 C   0  0  0  0  0  0
   63.3426   28.1151    6.2753 N   0  0  0  0  0  0
   61.5910   29.4184    6.8884 O   0  0  0  0  0  0
   64.2117   28.7925    7.1393 O   0  0  0  0  0  0
   72.5180   31.3901   -0.1449 C   0  0  0  0  0  0
   72.6351   30.5189    0.8509 F   0  0  0  0  0  0
   73.0608   32.5436    0.2504 F   0  0  0  0  0  0
   73.1863   30.9485   -1.2042 F   0  0  0  0  0  0
   71.3074   33.5785   -1.2264 H   0  0  0  0  0  0
   68.9150   33.9397   -1.5913 H   0  0  0  0  0  0
   67.2747   32.2422   -0.9190 H   0  0  0  0  0  0
   70.4669   29.5684    0.0121 H   0  0  0  0  0  0
   68.3226   29.0209    0.5734 H   0  0  0  0  0  0
   65.8352   27.5459   -0.3779 H   0  0  0  0  0  0
   66.6173   27.8255    1.1814 H   0  0  0  0  0  0
   64.0570   29.3118    0.7200 H   0  0  0  0  0  0
   63.8793   27.5954    0.6739 H   0  0  0  0  0  0
   64.6979   27.3153    2.9475 H   0  0  0  0  0  0
   65.3580   28.9191    2.9677 H   0  0  0  0  0  0
   63.4180   29.3149    4.1228 H   0  0  0  0  0  0
   63.0177   29.7376    2.5895 H   0  0  0  0  0  0
   61.3650   27.7849    2.7842 H   0  0  0  0  0  0
   62.5837   26.9110    3.5847 H   0  0  0  0  0  0
   60.5701   28.9223    4.6461 H   0  0  0  0  0  0
   60.6192   27.3170    5.1164 H   0  0  0  0  0  0
   63.8405   27.6325    5.5409 H   0  0  0  0  0  0
   63.7536   29.6225    7.3106 H   0  0  0  0  0  0
  1  2  1  0  0  0
  1  6  2  0  0  0
  1 24  1  0  0  0
  2  3  2  0  0  0
  2 25  1  0  0  0
  3  4  1  0  0  0
  3 26  1  0  0  0
  4  5  2  0  0  0
  4  7  1  0  0  0
  5  6  1  0  0  0
  5 27  1  0  0  0
  6 20  1  0  0  0
  7  8  1  0  0  0
  7 28  1  0  0  0
  8  9  1  0  0  0
  8 10  2  0  0  0
  9 11  1  0  0  0
  9 29  1  0  0  0
  9 30  1  0  0  0
 11 12  1  0  0  0
 11 31  1  0  0  0
 11 32  1  0  0  0
 12 13  1  0  0  0
 12 33  1  0  0  0
 12 34  1  0  0  0
 13 14  1  0  0  0
 13 35  1  0  0  0
 13 36  1  0  0  0
 14 15  1  0  0  0
 14 37  1  0  0  0
 14 38  1  0  0  0
 15 16  1  0  0  0
 15 39  1  0  0  0
 15 40  1  0  0  0
 16 17  1  0  0  0
 16 18  2  0  0  0
 17 19  1  0  0  0
 17 41  1  0  0  0
 19 42  1  0  0  0
 20 21  1  0  0  0
 20 22  1  0  0  0
 20 23  1  0  0  0
M  END
> <s_m_entry_id>
52345

> <s_m_entry_name>
dock_pv.67

> <s_m_Source_Path>
/home/csk/Desktop/cluster/DUD-E-result/hdac2

> <s_m_Source_File>
dock_pv.maegz

> <i_m_Source_File_Index>
67

> <chembl_id>
CHEMBL1089495

> <chembl_pref_name>
None

> <i_lp_mmshare_version>
53161

> <i_f3d_flags>
0

> <r_lp_tautomer_probability>
1

> <s_lp_Force_Field>
OPLS_2005

> <r_lp_Energy>
19.268081

> <b_lp_Chiralities_Consistent>
1

> <s_lp_Variant>
CHEMBL1937_lig430-1

> <s_i_glide_gridfile>
glide-grid_3max

> <i_i_glide_lignum>
481

> <i_i_glide_rotatable_bonds>
12

> <r_i_docking_score>
-7.62833652659656

> <r_i_glide_ligand_efficiency>
-0.331666805504198

> <r_i_glide_ligand_efficiency_sa>
-0.943216275500425

> <r_i_glide_ligand_efficiency_ln>
-1.84460094206241

> <r_i_glide_gscore>
-7.62833652659656

> <r_i_glide_lipo>
-2.79219266319198

> <r_i_glide_hbond>
-0.450827841998554

> <r_i_glide_metal>
-2.3

> <r_i_glide_rewards>
-1.43651157410783

> <r_i_glide_evdw>
-12.63254737854

> <r_i_glide_ecoul>
-9.80463790893555

> <r_i_glide_erotb>
1.70533030575748

> <r_i_glide_esite>
-0.251811697788339

> <r_i_glide_emodel>
-21.5289121638447

> <r_i_glide_energy>
-22.4371852874756

> <r_i_glide_einternal>
8.63569927215576

> <i_i_glide_confnum>
431

> <i_i_glide_posenum>
385

> <r_i_glide_eff_state_penalty>
0

> <s_user_duplicate_titles>
CHEMBL1937_lig430

> <s_m_subgroup_title>
dock_pv

> <s_m_subgroupid>
dock_pv

> <b_m_subgroup_collapsed>
1

$$$$
CHEMBL1937_lig827
                    3D
 Schrodinger Suite 2021-1.
 41 42  0  0  1  0            999 V2000
   69.7971   29.8016   -0.4160 N   0  0  0  0  0  0
   70.9219   30.5150   -0.4922 N   0  0  0  0  0  0
   70.7266   31.8548   -0.6717 C   0  0  0  0  0  0
   69.3433   31.9664   -0.6869 C   0  0  0  0  0  0
   68.8169   30.6753   -0.4797 C   0  0  0  0  0  0
   67.4180   30.3316   -0.4980 C   0  0  0  0  0  0
   66.6180   30.9151   -1.2160 O   0  0  0  0  0  0
   67.0180   29.3150    0.2635 N   0  0  0  0  0  0
   65.7214   28.6451    0.0900 C   0  0  0  0  0  0
   65.2277   27.9773    1.3659 C   0  0  0  0  0  0
   64.3067   28.8653    2.1960 C   0  0  0  0  0  0
   63.8621   28.2237    3.5160 C   0  0  0  0  0  0
   65.0181   27.9368    4.5222 C   0  0  0  0  0  0
   64.7378   28.1150    6.0363 C   0  0  0  0  0  0
   63.0181   28.5150    6.4987 S   0  0  0  0  0  0
   71.8348   32.8339   -0.8160 C   0  0  0  0  0  0
   71.6783   33.9655   -1.6229 C   0  0  0  0  0  0
   72.7361   34.8713   -1.7247 C   0  0  0  0  0  0
   73.0518   32.6447   -0.1468 C   0  0  0  0  0  0
   74.0600   33.5973   -0.3004 C   0  0  0  0  0  0
   73.9165   34.7023   -1.0761 N   0  0  0  0  0  0
   71.8314   30.0751   -0.4764 H   0  0  0  0  0  0
   68.7765   32.8767   -0.8158 H   0  0  0  0  0  0
   67.6758   28.9206    0.9330 H   0  0  0  0  0  0
   65.8180   27.8867   -0.6879 H   0  0  0  0  0  0
   64.9430   29.3149   -0.2820 H   0  0  0  0  0  0
   66.0937   27.7150    1.9635 H   0  0  0  0  0  0
   64.7134   27.0456    1.1230 H   0  0  0  0  0  0
   63.4182   29.0900    1.6098 H   0  0  0  0  0  0
   64.7968   29.8203    2.3840 H   0  0  0  0  0  0
   63.2981   27.3150    3.3100 H   0  0  0  0  0  0
   63.1311   28.9150    3.9256 H   0  0  0  0  0  0
   65.8730   28.5610    4.2682 H   0  0  0  0  0  0
   65.4180   26.9344    4.3840 H   0  0  0  0  0  0
   65.3634   28.9276    6.3987 H   0  0  0  0  0  0
   65.0727   27.2491    6.5995 H   0  0  0  0  0  0
   62.4977   27.3358    6.1433 H   0  0  0  0  0  0
   70.7559   34.1401   -2.1566 H   0  0  0  0  0  0
   72.6475   35.7574   -2.3364 H   0  0  0  0  0  0
   73.2183   31.7872    0.4901 H   0  0  0  0  0  0
   75.0063   33.4796    0.2099 H   0  0  0  0  0  0
  1  5  2  0  0  0
  1  2  1  0  0  0
  2 22  1  0  0  0
  2  3  1  0  0  0
  3 16  1  0  0  0
  3  4  2  0  0  0
  4  5  1  0  0  0
  4 23  1  0  0  0
  5  6  1  0  0  0
  6  7  2  0  0  0
  6  8  1  0  0  0
  8  9  1  0  0  0
  8 24  1  0  0  0
  9 10  1  0  0  0
  9 25  1  0  0  0
  9 26  1  0  0  0
 10 11  1  0  0  0
 10 27  1  0  0  0
 10 28  1  0  0  0
 11 12  1  0  0  0
 11 29  1  0  0  0
 11 30  1  0  0  0
 12 13  1  0  0  0
 12 31  1  0  0  0
 12 32  1  0  0  0
 13 14  1  0  0  0
 13 33  1  0  0  0
 13 34  1  0  0  0
 14 15  1  0  0  0
 14 35  1  0  0  0
 14 36  1  0  0  0
 15 37  1  0  0  0
 16 17  2  0  0  0
 16 19  1  0  0  0
 17 18  1  0  0  0
 17 38  1  0  0  0
 18 21  2  0  0  0
 18 39  1  0  0  0
 19 20  2  0  0  0
 19 40  1  0  0  0
 20 21  1  0  0  0
 20 41  1  0  0  0
M  END
> <s_m_entry_id>
52346

> <s_m_entry_name>
dock_pv.68

> <s_m_Source_Path>
/home/csk/Desktop/cluster/DUD-E-result/hdac2

> <s_m_Source_File>
dock_pv.maegz

> <i_m_Source_File_Index>
68

> <chembl_id>
CHEMBL3759562

> <chembl_pref_name>
None

> <i_lp_mmshare_version>
53161

> <i_f3d_flags>
0

> <r_lp_tautomer_probability>
0.5

> <s_lp_Force_Field>
OPLS_2005

> <r_lp_Energy>
7.892443

> <b_lp_Chiralities_Consistent>
1

> <s_lp_Variant>
CHEMBL1937_lig827-2

> <s_i_glide_gridfile>
glide-grid_3max

> <i_i_glide_lignum>
901

> <i_i_glide_rotatable_bonds>
10

> <r_i_docking_score>
-7.60144672167446

> <r_i_glide_ligand_efficiency>
-0.361973653413069

> <r_i_glide_ligand_efficiency_sa>
-0.998657862600839

> <r_i_glide_ligand_efficiency_ln>
-1.87944234176462

> <r_i_glide_gscore>
-7.60144672167446

> <r_i_glide_lipo>
-2.64415803759046

> <r_i_glide_hbond>
-0.32

> <r_i_glide_metal>
-2.3

> <r_i_glide_rewards>
-1.52751332035826

> <r_i_glide_evdw>
-25.6065788269043

> <r_i_glide_ecoul>
-7.73528146743774

> <r_i_glide_erotb>
1.79111735436598

> <r_i_glide_esite>
-0.160271556630841

> <r_i_glide_emodel>
-43.5575473355115

> <r_i_glide_energy>
-33.341860294342

> <r_i_glide_einternal>
17.2684936523438

> <i_i_glide_confnum>
51

> <i_i_glide_posenum>
111

> <r_i_glide_eff_state_penalty>
0

> <s_user_duplicate_titles>
CHEMBL1937_lig827,CHEMBL1937_lig827

> <s_m_subgroup_title>
dock_pv

> <s_m_subgroupid>
dock_pv

> <b_m_subgroup_collapsed>
1

$$$$
CHEMBL1937_lig358
                    3D
 Schrodinger Suite 2021-1.
 31 32  0  0  1  0            999 V2000
   72.4866   34.2129   -3.3321 C   0  0  0  0  0  0
   71.9500   35.3448   -3.9521 C   0  0  0  0  0  0
   72.7007   36.0574   -4.8822 C   0  0  0  0  0  0
   73.9874   35.6321   -5.2022 C   0  0  0  0  0  0
   74.5310   34.5024   -4.5961 C   0  0  0  0  0  0
   73.7849   33.7911   -3.6600 C   0  0  0  0  0  0
   70.6557   30.4679   -0.8032 C   0  0  0  0  0  0
   70.6581   31.8443   -1.0389 C   0  0  0  0  0  0
   69.4801   32.5618   -0.8160 C   0  0  0  0  0  0
   68.3087   31.8962   -0.4820 C   0  0  0  0  0  0
   68.2748   30.5055   -0.3729 C   0  0  0  0  0  0
   69.4690   29.8020   -0.4986 C   0  0  0  0  0  0
   66.9588   29.7799   -0.2427 C   0  0  0  0  0  0
   66.6180   29.3150    0.9696 N   0  0  0  0  0  0
   66.2180   29.7146   -1.2157 O   0  0  0  0  0  0
   65.3860   28.6580    1.1280 O   0  0  0  0  0  0
   71.8915   32.5090   -1.6023 C   0  0  0  0  0  0
   71.6346   33.5384   -2.4404 N   0  0  0  0  0  0
   73.0111   32.0657   -1.3506 O   0  0  0  0  0  0
   70.9512   35.6848   -3.7230 H   0  0  0  0  0  0
   72.2840   36.9337   -5.3569 H   0  0  0  0  0  0
   74.5697   36.1835   -5.9264 H   0  0  0  0  0  0
   75.5296   34.1787   -4.8512 H   0  0  0  0  0  0
   74.2306   32.9144   -3.2177 H   0  0  0  0  0  0
   71.5616   29.8902   -0.9274 H   0  0  0  0  0  0
   69.4389   33.6315   -0.9553 H   0  0  0  0  0  0
   67.4169   32.4876   -0.4160 H   0  0  0  0  0  0
   69.4671   28.7281   -0.4164 H   0  0  0  0  0  0
   67.2295   29.2544    1.7778 H   0  0  0  0  0  0
   65.6257   27.7282    1.1904 H   0  0  0  0  0  0
   70.6759   33.8411   -2.4711 H   0  0  0  0  0  0
  1  2  2  0  0  0
  1  6  1  0  0  0
  1 18  1  0  0  0
  2  3  1  0  0  0
  2 20  1  0  0  0
  3  4  2  0  0  0
  3 21  1  0  0  0
  4  5  1  0  0  0
  4 22  1  0  0  0
  5  6  2  0  0  0
  5 23  1  0  0  0
  6 24  1  0  0  0
  7  8  2  0  0  0
  7 12  1  0  0  0
  7 25  1  0  0  0
  8  9  1  0  0  0
  8 17  1  0  0  0
  9 10  2  0  0  0
  9 26  1  0  0  0
 10 11  1  0  0  0
 10 27  1  0  0  0
 11 12  2  0  0  0
 11 13  1  0  0  0
 12 28  1  0  0  0
 13 14  1  0  0  0
 13 15  2  0  0  0
 14 16  1  0  0  0
 14 29  1  0  0  0
 16 30  1  0  0  0
 17 18  1  0  0  0
 17 19  2  0  0  0
 18 31  1  0  0  0
M  END
> <s_m_entry_id>
52347

> <s_m_entry_name>
dock_pv.69

> <s_m_Source_Path>
/home/csk/Desktop/cluster/DUD-E-result/hdac2

> <s_m_Source_File>
dock_pv.maegz

> <i_m_Source_File_Index>
69

> <chembl_id>
CHEMBL2333342

> <chembl_pref_name>
None

> <i_lp_mmshare_version>
53161

> <i_f3d_flags>
0

> <r_lp_tautomer_probability>
1

> <s_lp_Force_Field>
OPLS_2005

> <r_lp_Energy>
31.087516

> <b_lp_Chiralities_Consistent>
1

> <s_lp_Variant>
CHEMBL1937_lig358-1

> <s_i_glide_gridfile>
glide-grid_3max

> <i_i_glide_lignum>
404

> <i_i_glide_rotatable_bonds>
6

> <r_i_docking_score>
-7.58341804914367

> <r_i_glide_ligand_efficiency>
-0.399127265744404

> <r_i_glide_ligand_efficiency_sa>
-1.06503185291694

> <r_i_glide_ligand_efficiency_ln>
-1.92255935234324

> <r_i_glide_gscore>
-7.58341804914367

> <r_i_glide_lipo>
-1.83467662877957

> <r_i_glide_hbond>
-0.222010339674238

> <r_i_glide_metal>
-2.3

> <r_i_glide_rewards>
-1.95820037052169

> <r_i_glide_evdw>
-21.4607219696045

> <r_i_glide_ecoul>
-9.07991218566895

> <r_i_glide_erotb>
1.34183117323479

> <r_i_glide_esite>
-0.175338957072398

> <r_i_glide_emodel>
-43.7409410659376

> <r_i_glide_energy>
-30.5406341552734

> <r_i_glide_einternal>
6.09189319610596

> <i_i_glide_confnum>
36

> <i_i_glide_posenum>
187

> <r_i_glide_eff_state_penalty>
0

> <s_user_duplicate_titles>
CHEMBL1937_lig358

> <s_m_subgroup_title>
dock_pv

> <s_m_subgroupid>
dock_pv

> <b_m_subgroup_collapsed>
1

$$$$
CHEMBL1937_lig822
                    3D
 Schrodinger Suite 2021-1.
 46 47  0  0  1  0            999 V2000
   68.1318   29.8139   -0.6761 C   0  0  0  0  0  0
   68.8873   31.0916   -0.2592 C   0  0  0  0  0  0
   70.4141   30.8894   -0.3742 C   0  0  0  0  0  0
   71.2726   32.1324   -0.0593 C   0  0  0  0  0  0
   72.0439   32.7177   -1.2631 C   0  0  0  0  0  0
   71.1644   33.4419   -2.2894 C   0  0  0  0  0  0
   71.7643   33.7568   -3.4496 N   0  0  0  0  0  0
   69.9914   33.7152   -2.0245 O   0  0  0  0  0  0
   71.0194   34.4405   -4.4200 O   0  0  0  0  0  0
   66.7007   29.7153   -0.1299 C   0  0  0  0  0  0
   66.5803   29.1622    1.0881 N   0  0  0  0  0  0
   65.7584   30.1133   -0.8160 O   0  0  0  0  0  0
   65.4173   28.9310    1.7359 N   0  0  0  0  0  0
   65.6258   28.4003    2.8782 C   0  0  0  0  0  0
   64.6024   28.1150    3.8936 C   0  0  0  0  0  0
   65.0178   27.8859    5.2236 C   0  0  0  0  0  0
   64.1200   28.1150    6.2713 C   0  0  0  0  0  0
   62.7957   28.4767    6.0002 C   0  0  0  0  0  0
   62.3470   28.5150    4.6781 C   0  0  0  0  0  0
   63.2441   28.3395    3.6263 C   0  0  0  0  0  0
   61.8254   28.6297    7.1152 C   0  0  0  0  0  0
   61.4180   27.6388    7.9840 C   0  0  0  0  0  0
   60.4013   28.0457    8.8430 C   0  0  0  0  0  0
   60.1473   29.3976    8.7842 C   0  0  0  0  0  0
   61.1222   30.1599    7.5840 S   0  0  0  0  0  0
   68.1257   29.7164   -1.7619 H   0  0  0  0  0  0
   68.6984   28.9524   -0.3240 H   0  0  0  0  0  0
   68.6460   31.3637    0.7720 H   0  0  0  0  0  0
   68.5628   31.9278   -0.8807 H   0  0  0  0  0  0
   70.6661   30.4942   -1.3609 H   0  0  0  0  0  0
   70.6931   30.1129    0.3356 H   0  0  0  0  0  0
   72.0004   31.8669    0.7102 H   0  0  0  0  0  0
   70.6543   32.9117    0.3838 H   0  0  0  0  0  0
   72.6289   31.9344   -1.7490 H   0  0  0  0  0  0
   72.7588   33.4526   -0.8907 H   0  0  0  0  0  0
   72.7314   33.6166   -3.7066 H   0  0  0  0  0  0
   71.3311   35.3489   -4.3574 H   0  0  0  0  0  0
   67.4167   28.8674    1.5815 H   0  0  0  0  0  0
   66.6262   28.1260    3.2123 H   0  0  0  0  0  0
   66.0524   27.6862    5.4571 H   0  0  0  0  0  0
   64.4602   28.0206    7.2922 H   0  0  0  0  0  0
   61.3043   28.6992    4.4628 H   0  0  0  0  0  0
   62.8976   28.4820    2.6131 H   0  0  0  0  0  0
   61.7804   26.6208    7.9841 H   0  0  0  0  0  0
   59.9231   27.3567    9.5242 H   0  0  0  0  0  0
   59.4607   29.9625    9.3970 H   0  0  0  0  0  0
  1  2  1  0  0  0
  1 10  1  0  0  0
  1 26  1  0  0  0
  1 27  1  0  0  0
  2  3  1  0  0  0
  2 28  1  0  0  0
  2 29  1  0  0  0
  3  4  1  0  0  0
  3 30  1  0  0  0
  3 31  1  0  0  0
  4  5  1  0  0  0
  4 32  1  0  0  0
  4 33  1  0  0  0
  5  6  1  0  0  0
  5 34  1  0  0  0
  5 35  1  0  0  0
  6  7  1  0  0  0
  6  8  2  0  0  0
  7  9  1  0  0  0
  7 36  1  0  0  0
  9 37  1  0  0  0
 10 11  1  0  0  0
 10 12  2  0  0  0
 11 13  1  0  0  0
 11 38  1  0  0  0
 13 14  2  0  0  0
 14 15  1  0  0  0
 14 39  1  0  0  0
 15 16  2  0  0  0
 15 20  1  0  0  0
 16 17  1  0  0  0
 16 40  1  0  0  0
 17 18  2  0  0  0
 17 41  1  0  0  0
 18 19  1  0  0  0
 18 21  1  0  0  0
 19 20  2  0  0  0
 19 42  1  0  0  0
 20 43  1  0  0  0
 21 22  2  0  0  0
 21 25  1  0  0  0
 22 23  1  0  0  0
 22 44  1  0  0  0
 23 24  2  0  0  0
 23 45  1  0  0  0
 24 25  1  0  0  0
 24 46  1  0  0  0
M  END
> <s_m_entry_id>
52348

> <s_m_entry_name>
dock_pv.70

> <s_m_Source_Path>
/home/csk/Desktop/cluster/DUD-E-result/hdac2

> <s_m_Source_File>
dock_pv.maegz

> <i_m_Source_File_Index>
70

> <chembl_id>
CHEMBL3758735

> <chembl_pref_name>
None

> <i_lp_mmshare_version>
53161

> <i_f3d_flags>
0

> <r_lp_tautomer_probability>
1

> <s_lp_Force_Field>
OPLS_2005

> <r_lp_Energy>
16.841635

> <b_lp_Chiralities_Consistent>
1

> <s_lp_Variant>
CHEMBL1937_lig822-1

> <s_i_glide_gridfile>
glide-grid_3max

> <i_i_glide_lignum>
895

> <i_i_glide_rotatable_bonds>
12

> <r_i_docking_score>
-7.55688559307727

> <r_i_glide_ligand_efficiency>
-0.302275423723091

> <r_i_glide_ligand_efficiency_sa>
-0.883858699843783

> <r_i_glide_ligand_efficiency_ln>
-1.79120834714621

> <r_i_glide_gscore>
-7.55688559307727

> <r_i_glide_lipo>
-2.18473900123457

> <r_i_glide_hbond>
-0.30653600608673

> <r_i_glide_metal>
-2.3

> <r_i_glide_rewards>
-1.28283678004092

> <r_i_glide_evdw>
-15.6273374557495

> <r_i_glide_ecoul>
-14.3874530792236

> <r_i_glide_erotb>
1.63190818952899

> <r_i_glide_esite>
-0.175197160573015

> <r_i_glide_emodel>
-27.5303690807011

> <r_i_glide_energy>
-30.0147905349731

> <r_i_glide_einternal>
13.3065938949585

> <i_i_glide_confnum>
168

> <i_i_glide_posenum>
96

> <r_i_glide_eff_state_penalty>
0

> <s_user_duplicate_titles>
CHEMBL1937_lig822

> <s_m_subgroup_title>
dock_pv

> <s_m_subgroupid>
dock_pv

> <b_m_subgroup_collapsed>
1

$$$$
CHEMBL1937_lig755
                    3D
 Schrodinger Suite 2021-1.
 37 39  0  0  1  0            999 V2000
   65.7237   28.7771    0.2502 O   0  0  0  0  0  0
   67.0180   29.3150    0.3840 N   0  0  0  0  0  0
   67.3967   30.3010   -0.4397 C   0  0  0  0  0  0
   66.6111   30.8199   -1.2160 O   0  0  0  0  0  0
   68.7932   30.8422   -0.3809 C   0  0  0  0  0  0
   69.0379   32.2179   -0.4160 C   0  0  0  0  0  0
   70.2875   32.7475   -0.4916 N   0  0  0  0  0  0
   71.3195   31.8610   -0.5201 C   0  0  0  0  0  0
   72.6383   32.3056   -0.6870 N   0  0  0  0  0  0
   73.0420   33.7055   -0.8220 C   0  0  0  0  0  0
   73.2357   34.4123    0.5111 C   0  0  0  0  0  0
   74.4370   33.9764   -0.2814 C   0  0  0  0  0  0
   72.5769   34.4959   -2.0773 C   0  0  0  0  0  0
   72.8424   35.8756   -2.1644 C   0  0  0  0  0  0
   72.4819   36.6321   -3.2864 C   0  0  0  0  0  0
   71.8180   36.0017   -4.3406 C   0  0  0  0  0  0
   71.5540   34.6383   -4.2848 C   0  0  0  0  0  0
   71.9377   33.8874   -3.1768 C   0  0  0  0  0  0
   71.6834   32.5624   -3.2160 F   0  0  0  0  0  0
   72.8534   38.1145   -3.3635 C   0  0  0  0  0  0
   72.5438   38.6542   -4.5439 F   0  0  0  0  0  0
   72.2180   38.8010   -2.4160 F   0  0  0  0  0  0
   74.1663   38.2533   -3.1775 F   0  0  0  0  0  0
   71.1821   30.5150   -0.4621 N   0  0  0  0  0  0
   69.9174   30.0257   -0.4160 C   0  0  0  0  0  0
   65.8714   27.9159   -0.1555 H   0  0  0  0  0  0
   67.5965   28.8534    1.0847 H   0  0  0  0  0  0
   68.2180   32.9150   -0.4160 H   0  0  0  0  0  0
   73.3678   31.6082   -0.6565 H   0  0  0  0  0  0
   73.0112   35.4734    0.6075 H   0  0  0  0  0  0
   73.0180   33.8726    1.4332 H   0  0  0  0  0  0
   75.0346   33.1490    0.1075 H   0  0  0  0  0  0
   75.0589   34.7357   -0.7557 H   0  0  0  0  0  0
   73.3640   36.3793   -1.3646 H   0  0  0  0  0  0
   71.5193   36.5588   -5.2160 H   0  0  0  0  0  0
   71.0666   34.1522   -5.1152 H   0  0  0  0  0  0
   69.8171   28.9556   -0.4803 H   0  0  0  0  0  0
  1  2  1  0  0  0
  1 26  1  0  0  0
  2  3  1  0  0  0
  2 27  1  0  0  0
  3  4  2  0  0  0
  3  5  1  0  0  0
  5  6  2  0  0  0
  5 25  1  0  0  0
  6  7  1  0  0  0
  6 28  1  0  0  0
  7  8  2  0  0  0
  8  9  1  0  0  0
  8 24  1  0  0  0
  9 10  1  0  0  0
  9 29  1  0  0  0
 10 11  1  0  0  0
 10 12  1  0  0  0
 10 13  1  0  0  0
 11 12  1  0  0  0
 11 30  1  0  0  0
 11 31  1  0  0  0
 12 32  1  0  0  0
 12 33  1  0  0  0
 13 14  2  0  0  0
 13 18  1  0  0  0
 14 15  1  0  0  0
 14 34  1  0  0  0
 15 16  2  0  0  0
 15 20  1  0  0  0
 16 17  1  0  0  0
 16 35  1  0  0  0
 17 18  2  0  0  0
 17 36  1  0  0  0
 18 19  1  0  0  0
 20 21  1  0  0  0
 20 22  1  0  0  0
 20 23  1  0  0  0
 24 25  2  0  0  0
 25 37  1  0  0  0
M  END
> <s_m_entry_id>
52349

> <s_m_entry_name>
dock_pv.71

> <s_m_Source_Path>
/home/csk/Desktop/cluster/DUD-E-result/hdac2

> <s_m_Source_File>
dock_pv.maegz

> <i_m_Source_File_Index>
71

> <chembl_id>
CHEMBL3655995

> <chembl_pref_name>
None

> <i_lp_mmshare_version>
53161

> <i_f3d_flags>
0

> <r_lp_tautomer_probability>
0.999999987636

> <s_lp_Force_Field>
OPLS_2005

> <r_lp_Energy>
28.150927

> <b_lp_Chiralities_Consistent>
1

> <s_lp_Variant>
CHEMBL1937_lig755-1

> <s_i_glide_gridfile>
glide-grid_3max

> <i_i_glide_lignum>
827

> <i_i_glide_rotatable_bonds>
7

> <r_i_docking_score>
-7.55302941631257

> <r_i_glide_ligand_efficiency>
-0.302121176652503

> <r_i_glide_ligand_efficiency_sa>
-0.883407678673801

> <r_i_glide_ligand_efficiency_ln>
-1.79029431769268

> <r_i_glide_gscore>
-7.55302941631257

> <r_i_glide_lipo>
-1.6238286805069

> <r_i_glide_hbond>
-0.32

> <r_i_glide_metal>
-2.3

> <r_i_glide_rewards>
-1.13106364658356

> <r_i_glide_evdw>
-23.3258762359619

> <r_i_glide_ecoul>
-10.5803327560425

> <r_i_glide_erotb>
0.75357083790172

> <r_i_glide_esite>
-0.178364201919355

> <r_i_glide_emodel>
-48.3471374310784

> <r_i_glide_energy>
-33.9062089920044

> <r_i_glide_einternal>
7.55867767333984

> <i_i_glide_confnum>
71

> <i_i_glide_posenum>
157

> <r_i_glide_eff_state_penalty>
0

> <s_user_duplicate_titles>
CHEMBL1937_lig755

> <s_m_subgroup_title>
dock_pv

> <s_m_subgroupid>
dock_pv

> <b_m_subgroup_collapsed>
1

$$$$
CHEMBL1937_lig885
                    3D
 Schrodinger Suite 2021-1.
 32 33  0  0  1  0            999 V2000
   60.2151   28.5138    4.7725 C   0  0  0  0  0  0
   60.4178   28.9150    6.0901 C   0  0  0  0  0  0
   61.6914   28.8959    6.6381 C   0  0  0  0  0  0
   62.7765   28.5362    5.8419 C   0  0  0  0  0  0
   62.5963   28.2220    4.4833 C   0  0  0  0  0  0
   61.2971   28.1151    3.9840 C   0  0  0  0  0  0
   63.8003   28.1150    3.5933 C   0  0  0  0  0  0
   63.7196   28.3663    2.2544 O   0  0  0  0  0  0
   65.0224   28.5947    1.9228 C   0  0  0  0  0  0
   65.8180   28.5150    2.9511 N   0  0  0  0  0  0
   65.0392   28.1150    4.0139 N   0  0  0  0  0  0
   65.4258   28.9069    0.4947 C   0  0  0  0  0  0
   66.8443   29.3150    0.4150 N   0  0  0  0  0  0
   67.3528   30.2216   -0.4157 C   0  0  0  0  0  0
   68.8342   30.6532   -0.2375 C   0  0  2  0  0  0
   66.6180   30.7704   -1.2160 O   0  0  0  0  0  0
   68.9330   32.1151   -0.4160 N   0  0  0  0  0  0
   69.7638   29.9313   -1.2160 C   0  0  0  0  0  0
   59.2115   28.4952    4.3718 H   0  0  0  0  0  0
   59.5722   29.2005    6.6981 H   0  0  0  0  0  0
   61.8180   29.1793    7.6684 H   0  0  0  0  0  0
   63.7671   28.5780    6.2725 H   0  0  0  0  0  0
   61.1291   27.8173    2.9611 H   0  0  0  0  0  0
   64.7689   29.6966    0.1268 H   0  0  0  0  0  0
   65.2687   28.0319   -0.1386 H   0  0  0  0  0  0
   67.4791   28.9150    1.1048 H   0  0  0  0  0  0
   69.1535   30.4284    0.7810 H   0  0  0  0  0  0
   68.3718   32.5898    0.2781 H   0  0  0  0  0  0
   69.8846   32.4269   -0.2811 H   0  0  0  0  0  0
   69.7991   28.8649   -1.0083 H   0  0  0  0  0  0
   70.7867   30.3021   -1.1402 H   0  0  0  0  0  0
   69.4391   30.0649   -2.2497 H   0  0  0  0  0  0
  1  2  2  0  0  0
  1  6  1  0  0  0
  1 19  1  0  0  0
  2  3  1  0  0  0
  2 20  1  0  0  0
  3  4  2  0  0  0
  3 21  1  0  0  0
  4  5  1  0  0  0
  4 22  1  0  0  0
  5  6  2  0  0  0
  5  7  1  0  0  0
  6 23  1  0  0  0
  7  8  1  0  0  0
  7 11  2  0  0  0
  8  9  1  0  0  0
  9 10  2  0  0  0
  9 12  1  0  0  0
 10 11  1  0  0  0
 12 13  1  0  0  0
 12 24  1  0  0  0
 12 25  1  0  0  0
 13 14  1  0  0  0
 13 26  1  0  0  0
 14 15  1  0  0  0
 14 16  2  0  0  0
 15 17  1  0  0  0
 15 18  1  0  0  0
 15 27  1  0  0  0
 17 28  1  0  0  0
 17 29  1  0  0  0
 18 30  1  0  0  0
 18 31  1  0  0  0
 18 32  1  0  0  0
M  END
> <s_m_entry_id>
52350

> <s_m_entry_name>
dock_pv.72

> <s_m_Source_Path>
/home/csk/Desktop/cluster/DUD-E-result/hdac2

> <s_m_Source_File>
dock_pv.maegz

> <i_m_Source_File_Index>
72

> <chembl_id>
CHEMBL3930237

> <chembl_pref_name>
None

> <i_lp_mmshare_version>
53161

> <i_f3d_flags>
0

> <r_lp_tautomer_probability>
1

> <s_lp_Force_Field>
OPLS_2005

> <r_lp_Energy>
5.742232

> <b_lp_Chiralities_Consistent>
1

> <s_lp_Variant>
CHEMBL1937_lig885-1

> <s_i_glide_gridfile>
glide-grid_3max

> <i_i_glide_lignum>
971

> <i_i_glide_rotatable_bonds>
5

> <r_i_docking_score>
-7.54276491667689

> <r_i_glide_ligand_efficiency>
-0.419042495370938

> <r_i_glide_ligand_efficiency_sa>
-1.09820201249314

> <r_i_glide_ligand_efficiency_ln>
-1.93882882821355

> <r_i_glide_gscore>
-7.54276491667689

> <r_i_glide_lipo>
-1.74967817871077

> <r_i_glide_hbond>
-0.32

> <r_i_glide_metal>
-2.3

> <r_i_glide_rewards>
-2.01334161568269

> <r_i_glide_evdw>
-14.1379146575928

> <r_i_glide_ecoul>
-9.61633396148682

> <r_i_glide_erotb>
1.14924944882316

> <r_i_glide_esite>
-0.159648744003932

> <r_i_glide_emodel>
-29.8244413889065

> <r_i_glide_energy>
-23.7542486190796

> <r_i_glide_einternal>
2.41883182525635

> <i_i_glide_confnum>
3

> <i_i_glide_posenum>
335

> <r_i_glide_eff_state_penalty>
0

> <s_user_duplicate_titles>
CHEMBL1937_lig885

> <s_m_subgroup_title>
dock_pv

> <s_m_subgroupid>
dock_pv

> <b_m_subgroup_collapsed>
1

$$$$
CHEMBL1937_lig797
                    3D
 Schrodinger Suite 2021-1.
 37 39  0  0  1  0            999 V2000
   65.7176   28.7908    0.2567 O   0  0  0  0  0  0
   67.0180   29.3150    0.3840 N   0  0  0  0  0  0
   67.4028   30.3012   -0.4428 C   0  0  0  0  0  0
   66.6178   30.8254   -1.2160 O   0  0  0  0  0  0
   68.8072   30.8302   -0.4039 C   0  0  0  0  0  0
   69.9188   29.9949   -0.4160 C   0  0  0  0  0  0
   71.1897   30.4684   -0.4437 N   0  0  0  0  0  0
   71.3549   31.8065   -0.5318 C   0  0  0  0  0  0
   72.6945   32.2065   -0.6492 N   0  0  0  0  0  0
   73.1722   33.5803   -0.8582 C   0  0  0  0  0  0
   73.1148   34.3467    0.4911 C   0  0  0  0  0  0
   74.5561   34.8108    0.2817 C   0  0  0  0  0  0
   74.7089   33.6160   -0.6602 C   0  0  0  0  0  0
   72.6245   34.2374   -2.1501 C   0  0  0  0  0  0
   72.3742   35.6161   -2.1949 C   0  0  0  0  0  0
   71.8180   36.2006   -3.3287 C   0  0  0  0  0  0
   71.4747   35.4053   -4.4160 C   0  0  0  0  0  0
   71.6868   34.0311   -4.3836 C   0  0  0  0  0  0
   72.2410   33.4505   -3.2464 C   0  0  0  0  0  0
   70.3373   32.7104   -0.5519 N   0  0  0  0  0  0
   69.0752   32.2050   -0.4714 C   0  0  0  0  0  0
   65.8546   27.9278   -0.1488 H   0  0  0  0  0  0
   67.5948   28.8481    1.0825 H   0  0  0  0  0  0
   69.8116   28.9196   -0.4167 H   0  0  0  0  0  0
   73.3958   31.4892   -0.5313 H   0  0  0  0  0  0
   72.3648   35.1334    0.5678 H   0  0  0  0  0  0
   73.0180   33.7038    1.3694 H   0  0  0  0  0  0
   74.6459   35.7779   -0.2156 H   0  0  0  0  0  0
   75.1906   34.7928    1.1694 H   0  0  0  0  0  0
   75.1297   32.7354   -0.1657 H   0  0  0  0  0  0
   75.2905   33.8094   -1.5624 H   0  0  0  0  0  0
   72.6210   36.2537   -1.3607 H   0  0  0  0  0  0
   71.6380   37.2655   -3.3603 H   0  0  0  0  0  0
   71.0310   35.8647   -5.2858 H   0  0  0  0  0  0
   71.4180   33.4209   -5.2334 H   0  0  0  0  0  0
   72.3852   32.3819   -3.2161 H   0  0  0  0  0  0
   68.2709   32.9263   -0.4883 H   0  0  0  0  0  0
  1  2  1  0  0  0
  1 22  1  0  0  0
  2  3  1  0  0  0
  2 23  1  0  0  0
  3  4  2  0  0  0
  3  5  1  0  0  0
  5  6  2  0  0  0
  5 21  1  0  0  0
  6  7  1  0  0  0
  6 24  1  0  0  0
  7  8  2  0  0  0
  8  9  1  0  0  0
  8 20  1  0  0  0
  9 10  1  0  0  0
  9 25  1  0  0  0
 10 11  1  0  0  0
 10 13  1  0  0  0
 10 14  1  0  0  0
 11 12  1  0  0  0
 11 26  1  0  0  0
 11 27  1  0  0  0
 12 13  1  0  0  0
 12 28  1  0  0  0
 12 29  1  0  0  0
 13 30  1  0  0  0
 13 31  1  0  0  0
 14 15  2  0  0  0
 14 19  1  0  0  0
 15 16  1  0  0  0
 15 32  1  0  0  0
 16 17  2  0  0  0
 16 33  1  0  0  0
 17 18  1  0  0  0
 17 34  1  0  0  0
 18 19  2  0  0  0
 18 35  1  0  0  0
 19 36  1  0  0  0
 20 21  2  0  0  0
 21 37  1  0  0  0
M  END
> <s_m_entry_id>
52351

> <s_m_entry_name>
dock_pv.73

> <s_m_Source_Path>
/home/csk/Desktop/cluster/DUD-E-result/hdac2

> <s_m_Source_File>
dock_pv.maegz

> <i_m_Source_File_Index>
73

> <chembl_id>
CHEMBL3655999

> <chembl_pref_name>
None

> <i_lp_mmshare_version>
53161

> <i_f3d_flags>
0

> <r_lp_tautomer_probability>
0.999999987636

> <s_lp_Force_Field>
OPLS_2005

> <r_lp_Energy>
25.679296

> <b_lp_Chiralities_Consistent>
1

> <s_lp_Variant>
CHEMBL1937_lig797-1

> <s_i_glide_gridfile>
glide-grid_3max

> <i_i_glide_lignum>
870

> <i_i_glide_rotatable_bonds>
6

> <r_i_docking_score>
-7.53870210942546

> <r_i_glide_ligand_efficiency>
-0.358985814734546

> <r_i_glide_ligand_efficiency_sa>
-0.990414642243898

> <r_i_glide_ligand_efficiency_ln>
-1.86392886317348

> <r_i_glide_gscore>
-7.53870210942546

> <r_i_glide_lipo>
-1.62996974209431

> <r_i_glide_hbond>
-0.32

> <r_i_glide_metal>
-2.3

> <r_i_glide_rewards>
-1.55285344818892

> <r_i_glide_evdw>
-23.4066295623779

> <r_i_glide_ecoul>
-10.0647745132446

> <r_i_glide_erotb>
1.12112470639453

> <r_i_glide_esite>
-0.176955970431162

> <r_i_glide_emodel>
-49.7570682446138

> <r_i_glide_energy>
-33.4714040756226

> <r_i_glide_einternal>
3.4886167049408

> <i_i_glide_confnum>
108

> <i_i_glide_posenum>
182

> <r_i_glide_eff_state_penalty>
0

> <s_user_duplicate_titles>
CHEMBL1937_lig797

> <s_m_subgroup_title>
dock_pv

> <s_m_subgroupid>
dock_pv

> <b_m_subgroup_collapsed>
1

$$$$
CHEMBL1937_lig678
                    3D
 Schrodinger Suite 2021-1.
 34 36  0  0  1  0            999 V2000
   65.7199   28.8815    0.2491 O   0  0  0  0  0  0
   67.0209   29.4045    0.3839 N   0  0  0  0  0  0
   67.4120   30.3840   -0.4512 C   0  0  0  0  0  0
   66.6180   30.9147   -1.2159 O   0  0  0  0  0  0
   68.8288   30.8889   -0.4259 C   0  0  0  0  0  0
   69.1312   32.2552   -0.5375 C   0  0  0  0  0  0
   70.4063   32.7295   -0.6205 N   0  0  0  0  0  0
   71.4020   31.8037   -0.5553 C   0  0  0  0  0  0
   72.7534   32.1723   -0.6077 N   0  0  0  0  0  0
   73.2453   33.5257   -0.8345 C   0  0  0  0  0  0
   73.3358   34.4338    0.3802 C   0  0  0  0  0  0
   74.5850   33.8248   -0.1862 C   0  0  0  0  0  0
   72.9902   34.0963   -2.2274 C   0  0  0  0  0  0
   72.0004   35.0624   -2.4401 C   0  0  0  0  0  0
   71.7940   35.5960   -3.7136 C   0  0  0  0  0  0
   72.5872   35.1757   -4.7795 C   0  0  0  0  0  0
   73.5781   34.2169   -4.5766 C   0  0  0  0  0  0
   74.5653   33.7144   -5.8973 Cl  0  0  0  0  0  0
   73.7760   33.6760   -3.3060 C   0  0  0  0  0  0
   71.2044   30.4725   -0.4409 N   0  0  0  0  0  0
   69.9231   30.0293   -0.4161 C   0  0  0  0  0  0
   65.8584   28.0151   -0.1474 H   0  0  0  0  0  0
   67.5976   28.9148    1.0677 H   0  0  0  0  0  0
   68.3440   32.9936   -0.5872 H   0  0  0  0  0  0
   73.4394   31.4413   -0.4848 H   0  0  0  0  0  0
   73.1730   35.5048    0.2575 H   0  0  0  0  0  0
   73.0182   34.0725    1.3573 H   0  0  0  0  0  0
   75.0908   33.0486    0.3928 H   0  0  0  0  0  0
   75.2912   34.4748   -0.7047 H   0  0  0  0  0  0
   71.3969   35.4045   -1.6160 H   0  0  0  0  0  0
   71.0247   36.3383   -3.8746 H   0  0  0  0  0  0
   72.4374   35.6021   -5.7603 H   0  0  0  0  0  0
   74.5519   32.9392   -3.1493 H   0  0  0  0  0  0
   69.7929   28.9559   -0.4158 H   0  0  0  0  0  0
  1  2  1  0  0  0
  1 22  1  0  0  0
  2  3  1  0  0  0
  2 23  1  0  0  0
  3  4  2  0  0  0
  3  5  1  0  0  0
  5  6  2  0  0  0
  5 21  1  0  0  0
  6  7  1  0  0  0
  6 24  1  0  0  0
  7  8  2  0  0  0
  8  9  1  0  0  0
  8 20  1  0  0  0
  9 10  1  0  0  0
  9 25  1  0  0  0
 10 11  1  0  0  0
 10 12  1  0  0  0
 10 13  1  0  0  0
 11 12  1  0  0  0
 11 26  1  0  0  0
 11 27  1  0  0  0
 12 28  1  0  0  0
 12 29  1  0  0  0
 13 14  2  0  0  0
 13 19  1  0  0  0
 14 15  1  0  0  0
 14 30  1  0  0  0
 15 16  2  0  0  0
 15 31  1  0  0  0
 16 17  1  0  0  0
 16 32  1  0  0  0
 17 18  1  0  0  0
 17 19  2  0  0  0
 19 33  1  0  0  0
 20 21  2  0  0  0
 21 34  1  0  0  0
M  END
> <s_m_entry_id>
52352

> <s_m_entry_name>
dock_pv.74

> <s_m_Source_Path>
/home/csk/Desktop/cluster/DUD-E-result/hdac2

> <s_m_Source_File>
dock_pv.maegz

> <i_m_Source_File_Index>
74

> <chembl_id>
CHEMBL3655971

> <chembl_pref_name>
None

> <i_lp_mmshare_version>
53161

> <i_f3d_flags>
0

> <r_lp_tautomer_probability>
0.999999987636

> <s_lp_Force_Field>
OPLS_2005

> <r_lp_Energy>
20.58531

> <b_lp_Chiralities_Consistent>
1

> <s_lp_Variant>
CHEMBL1937_lig678-1

> <s_i_glide_gridfile>
glide-grid_3max

> <i_i_glide_lignum>
749

> <i_i_glide_rotatable_bonds>
6

> <r_i_docking_score>
-7.52615785994238

> <r_i_glide_ligand_efficiency>
-0.358388469521066

> <r_i_glide_ligand_efficiency_sa>
-0.988766612094456

> <r_i_glide_ligand_efficiency_ln>
-1.86082732283683

> <r_i_glide_gscore>
-7.52615785994238

> <r_i_glide_lipo>
-1.45581286676502

> <r_i_glide_hbond>
-0.32

> <r_i_glide_metal>
-2.3

> <r_i_glide_rewards>
-1.4671058787549

> <r_i_glide_evdw>
-23.6998329162598

> <r_i_glide_ecoul>
-10.7240619659424

> <r_i_glide_erotb>
0.993235382813784

> <r_i_glide_esite>
-0.182873556531898

> <r_i_glide_emodel>
-50.8035995788581

> <r_i_glide_energy>
-34.4238948822021

> <r_i_glide_einternal>
4.40128183364868

> <i_i_glide_confnum>
75

> <i_i_glide_posenum>
216

> <r_i_glide_eff_state_penalty>
0

> <s_user_duplicate_titles>
CHEMBL1937_lig678

> <s_m_subgroup_title>
dock_pv

> <s_m_subgroupid>
dock_pv

> <b_m_subgroup_collapsed>
1

$$$$
CHEMBL1937_lig623
                    3D
 Schrodinger Suite 2021-1.
 46 48  0  0  1  0            999 V2000
   62.4242   28.1809    4.5428 C   0  0  0  0  0  0
   62.7535   28.2123    5.9013 C   0  0  0  0  0  0
   64.0926   28.1150    6.2978 C   0  0  0  0  0  0
   65.0997   28.0263    5.3378 C   0  0  0  0  0  0
   64.7597   28.1150    3.9778 C   0  0  0  0  0  0
   63.4184   28.1160    3.5834 C   0  0  0  0  0  0
   61.6769   28.3373    6.9104 C   0  0  0  0  0  0
   60.6925   29.2877    6.7627 C   0  0  0  0  0  0
   59.8180   29.5692    7.7712 C   0  0  0  0  0  0
   59.8147   28.8293    8.9253 C   0  0  0  0  0  0
   60.6180   27.7151    8.9996 C   0  0  0  0  0  0
   61.5542   27.4620    7.9858 C   0  0  0  0  0  0
   65.8090   28.4098    2.9995 C   0  0  0  0  0  0
   65.6123   28.9854    1.8027 C   0  0  0  0  0  0
   66.6179   29.2013    0.9361 N   0  0  0  0  0  0
   66.5264   29.7150   -0.2803 C   0  0  0  0  0  0
   67.7314   29.7158   -0.8409 N   0  0  0  0  0  0
   65.4958   30.1149   -0.8160 O   0  0  0  0  0  0
   68.4518   30.9061   -0.8158 O   0  0  0  0  0  0
   69.6427   30.7360   -0.0411 C   0  0  0  0  0  0
   70.7669   31.6796   -0.4690 C   0  0  0  0  0  0
   72.0712   31.3838   -0.0573 C   0  0  0  0  0  0
   73.1290   32.2108   -0.4213 C   0  0  0  0  0  0
   72.8846   33.3378   -1.2021 C   0  0  0  0  0  0
   71.5906   33.6481   -1.6148 C   0  0  0  0  0  0
   70.5309   32.8249   -1.2418 C   0  0  0  0  0  0
   61.3911   28.2071    4.2263 H   0  0  0  0  0  0
   64.3570   28.1258    7.3455 H   0  0  0  0  0  0
   66.1339   28.0243    5.6420 H   0  0  0  0  0  0
   63.1326   28.1412    2.5426 H   0  0  0  0  0  0
   60.5166   29.7150    5.8127 H   0  0  0  0  0  0
   59.0228   30.2392    7.5840 H   0  0  0  0  0  0
   59.0959   29.0447    9.6977 H   0  0  0  0  0  0
   60.6272   27.1399    9.9079 H   0  0  0  0  0  0
   62.2415   26.6383    8.1055 H   0  0  0  0  0  0
   66.8103   28.1149    3.2782 H   0  0  0  0  0  0
   64.6428   29.3136    1.4491 H   0  0  0  0  0  0
   67.5510   28.8936    1.1840 H   0  0  0  0  0  0
   67.8605   29.2569   -1.7357 H   0  0  0  0  0  0
   69.4119   30.9138    1.0106 H   0  0  0  0  0  0
   70.0293   29.7162   -0.1179 H   0  0  0  0  0  0
   72.2755   30.5151    0.5510 H   0  0  0  0  0  0
   74.1331   31.9756   -0.0942 H   0  0  0  0  0  0
   73.7070   33.9792   -1.4843 H   0  0  0  0  0  0
   71.4090   34.5295   -2.2124 H   0  0  0  0  0  0
   69.5315   33.0846   -1.5576 H   0  0  0  0  0  0
  1  2  2  0  0  0
  1  6  1  0  0  0
  1 27  1  0  0  0
  2  3  1  0  0  0
  2  7  1  0  0  0
  3  4  2  0  0  0
  3 28  1  0  0  0
  4  5  1  0  0  0
  4 29  1  0  0  0
  5  6  2  0  0  0
  5 13  1  0  0  0
  6 30  1  0  0  0
  7  8  2  0  0  0
  7 12  1  0  0  0
  8  9  1  0  0  0
  8 31  1  0  0  0
  9 10  2  0  0  0
  9 32  1  0  0  0
 10 11  1  0  0  0
 10 33  1  0  0  0
 11 12  2  0  0  0
 11 34  1  0  0  0
 12 35  1  0  0  0
 13 14  2  0  0  0
 13 36  1  0  0  0
 14 15  1  0  0  0
 14 37  1  0  0  0
 15 16  1  0  0  0
 15 38  1  0  0  0
 16 17  1  0  0  0
 16 18  2  0  0  0
 17 19  1  0  0  0
 17 39  1  0  0  0
 19 20  1  0  0  0
 20 21  1  0  0  0
 20 40  1  0  0  0
 20 41  1  0  0  0
 21 22  2  0  0  0
 21 26  1  0  0  0
 22 23  1  0  0  0
 22 42  1  0  0  0
 23 24  2  0  0  0
 23 43  1  0  0  0
 24 25  1  0  0  0
 24 44  1  0  0  0
 25 26  2  0  0  0
 25 45  1  0  0  0
 26 46  1  0  0  0
M  END
> <s_m_entry_id>
52354

> <s_m_entry_name>
dock_pv.76

> <s_m_Source_Path>
/home/csk/Desktop/cluster/DUD-E-result/hdac2

> <s_m_Source_File>
dock_pv.maegz

> <i_m_Source_File_Index>
76

> <chembl_id>
CHEMBL3621538

> <chembl_pref_name>
None

> <i_lp_mmshare_version>
53161

> <i_f3d_flags>
0

> <r_lp_tautomer_probability>
1

> <s_lp_Force_Field>
OPLS_2005

> <r_lp_Energy>
25.501981

> <b_lp_Chiralities_Consistent>
1

> <s_lp_Variant>
CHEMBL1937_lig623-1

> <s_i_glide_gridfile>
glide-grid_3max

> <i_i_glide_lignum>
694

> <i_i_glide_rotatable_bonds>
8

> <r_i_docking_score>
-7.47920385579799

> <r_i_glide_ligand_efficiency>
-0.287661686761461

> <r_i_glide_ligand_efficiency_sa>
-0.852196615136748

> <r_i_glide_ligand_efficiency_ln>
-1.75646648426463

> <r_i_glide_gscore>
-7.47920385579799

> <r_i_glide_lipo>
-2.89391705954168

> <r_i_glide_hbond>
-0.504177772884406

> <r_i_glide_metal>
-2.3

> <r_i_glide_rewards>
-1.299885277323

> <r_i_glide_evdw>
7.05224180221558

> <r_i_glide_ecoul>
-11.3625535964966

> <r_i_glide_erotb>
1.12050192367995

> <r_i_glide_esite>
-0.249954720365143

> <r_i_glide_emodel>
-8.60461815251164

> <r_i_glide_energy>
-4.31031179428101

> <r_i_glide_einternal>
19.9722385406494

> <i_i_glide_confnum>
1

> <i_i_glide_posenum>
357

> <r_i_glide_eff_state_penalty>
0

> <s_user_duplicate_titles>
CHEMBL1937_lig623

> <s_m_subgroup_title>
dock_pv

> <s_m_subgroupid>
dock_pv

> <b_m_subgroup_collapsed>
1

$$$$
CHEMBL1937_lig662
                    3D
 Schrodinger Suite 2021-1.
 40 42  0  0  1  0            999 V2000
   65.7184   28.7894    0.2564 O   0  0  0  0  0  0
   67.0180   29.3150    0.3840 N   0  0  0  0  0  0
   67.3990   30.3029   -0.4398 C   0  0  0  0  0  0
   66.6179   30.8302   -1.2160 O   0  0  0  0  0  0
   68.8040   30.8198   -0.3883 C   0  0  0  0  0  0
   69.0907   32.1891   -0.4160 C   0  0  0  0  0  0
   70.3629   32.6702   -0.4645 N   0  0  0  0  0  0
   71.3688   31.7541   -0.4813 C   0  0  0  0  0  0
   72.7213   32.1155   -0.5866 N   0  0  0  0  0  0
   73.3119   33.4155   -0.9344 C   0  0  0  0  0  0
   72.8768   34.4824    0.1163 C   0  0  0  0  0  0
   73.6654   35.8046    0.0097 C   0  0  0  0  0  0
   75.1812   35.5694    0.1363 C   0  0  0  0  0  0
   75.6771   34.4944   -0.8475 C   0  0  0  0  0  0
   74.8461   33.1957   -0.7393 C   0  0  0  0  0  0
   72.9555   33.7972   -2.3899 C   0  0  0  0  0  0
   73.7201   33.6603   -3.5579 C   0  0  0  0  0  0
   73.1123   34.1150   -4.7315 C   0  0  0  0  0  0
   71.8492   34.6183   -4.5057 C   0  0  0  0  0  0
   71.4200   34.5150   -2.8417 S   0  0  0  0  0  0
   71.1798   30.4192   -0.4316 N   0  0  0  0  0  0
   69.9019   29.9712   -0.4160 C   0  0  0  0  0  0
   65.8562   27.9275   -0.1513 H   0  0  0  0  0  0
   67.5957   28.8486    1.0821 H   0  0  0  0  0  0
   68.2982   32.9234   -0.4160 H   0  0  0  0  0  0
   73.3602   31.3342   -0.6172 H   0  0  0  0  0  0
   71.8180   34.7060    0.0414 H   0  0  0  0  0  0
   73.0180   34.0810    1.1222 H   0  0  0  0  0  0
   73.4478   36.2868   -0.9446 H   0  0  0  0  0  0
   73.3326   36.4989    0.7823 H   0  0  0  0  0  0
   75.7207   36.5032   -0.0264 H   0  0  0  0  0  0
   75.4142   35.2574    1.1560 H   0  0  0  0  0  0
   75.6323   34.8854   -1.8644 H   0  0  0  0  0  0
   76.7287   34.2769   -0.6555 H   0  0  0  0  0  0
   75.0393   32.7656    0.2480 H   0  0  0  0  0  0
   75.2283   32.4567   -1.4452 H   0  0  0  0  0  0
   74.7138   33.2384   -3.5595 H   0  0  0  0  0  0
   73.5826   34.0856   -5.7038 H   0  0  0  0  0  0
   71.1586   35.0467   -5.2160 H   0  0  0  0  0  0
   69.7743   28.9048   -0.4482 H   0  0  0  0  0  0
  1  2  1  0  0  0
  1 23  1  0  0  0
  2  3  1  0  0  0
  2 24  1  0  0  0
  3  4  2  0  0  0
  3  5  1  0  0  0
  5  6  2  0  0  0
  5 22  1  0  0  0
  6  7  1  0  0  0
  6 25  1  0  0  0
  7  8  2  0  0  0
  8  9  1  0  0  0
  8 21  1  0  0  0
  9 10  1  0  0  0
  9 26  1  0  0  0
 10 11  1  0  0  0
 10 15  1  0  0  0
 10 16  1  0  0  0
 11 12  1  0  0  0
 11 27  1  0  0  0
 11 28  1  0  0  0
 12 13  1  0  0  0
 12 29  1  0  0  0
 12 30  1  0  0  0
 13 14  1  0  0  0
 13 31  1  0  0  0
 13 32  1  0  0  0
 14 15  1  0  0  0
 14 33  1  0  0  0
 14 34  1  0  0  0
 15 35  1  0  0  0
 15 36  1  0  0  0
 16 17  2  0  0  0
 16 20  1  0  0  0
 17 18  1  0  0  0
 17 37  1  0  0  0
 18 19  2  0  0  0
 18 38  1  0  0  0
 19 20  1  0  0  0
 19 39  1  0  0  0
 21 22  2  0  0  0
 22 40  1  0  0  0
M  END
> <s_m_entry_id>
52355

> <s_m_entry_name>
dock_pv.77

> <s_m_Source_Path>
/home/csk/Desktop/cluster/DUD-E-result/hdac2

> <s_m_Source_File>
dock_pv.maegz

> <i_m_Source_File_Index>
77

> <chembl_id>
CHEMBL3656023

> <chembl_pref_name>
None

> <i_lp_mmshare_version>
53161

> <i_f3d_flags>
0

> <r_lp_tautomer_probability>
0.999999987636

> <s_lp_Force_Field>
OPLS_2005

> <r_lp_Energy>
16.550119

> <b_lp_Chiralities_Consistent>
1

> <s_lp_Variant>
CHEMBL1937_lig662-1

> <s_i_glide_gridfile>
glide-grid_3max

> <i_i_glide_lignum>
733

> <i_i_glide_rotatable_bonds>
6

> <r_i_docking_score>
-7.45719887564042

> <r_i_glide_ligand_efficiency>
-0.338963585256383

> <r_i_glide_ligand_efficiency_sa>
-0.949789296569732

> <r_i_glide_ligand_efficiency_ln>
-1.82281141314455

> <r_i_glide_gscore>
-7.45719887564042

> <r_i_glide_lipo>
-1.42036439617018

> <r_i_glide_hbond>
-0.32

> <r_i_glide_metal>
-2.3

> <r_i_glide_rewards>
-1.40843500821115

> <r_i_glide_evdw>
-23.4865322113037

> <r_i_glide_ecoul>
-10.4877223968506

> <r_i_glide_erotb>
0.919566868991846

> <r_i_glide_esite>
-0.18048137015817

> <r_i_glide_emodel>
-49.775437322229

> <r_i_glide_energy>
-33.9742546081543

> <r_i_glide_einternal>
3.94877338409424

> <i_i_glide_confnum>
16

> <i_i_glide_posenum>
258

> <r_i_glide_eff_state_penalty>
0

> <s_user_duplicate_titles>
CHEMBL1937_lig662

> <s_m_subgroup_title>
dock_pv

> <s_m_subgroupid>
dock_pv

> <b_m_subgroup_collapsed>
1

$$$$
CHEMBL1937_lig73
                    3D
 Schrodinger Suite 2021-1.
 23 23  0  0  1  0            999 V2000
   66.4407   29.6668   -0.1218 C   0  0  0  0  0  0
   65.5314   30.1150   -0.8160 O   0  0  0  0  0  0
   66.2180   28.9224    0.9773 N   0  0  0  0  0  0
   64.8947   28.6415    1.3536 O   0  0  0  0  0  0
   72.5023   32.2258   -1.1285 C   0  0  0  0  0  0
   71.5146   33.0292   -1.6932 C   0  0  0  0  0  0
   70.1744   32.7698   -1.4178 C   0  0  0  0  0  0
   69.8166   31.6992   -0.5915 C   0  0  0  0  0  0
   70.8195   30.9150   -0.0160 C   0  0  0  0  0  0
   72.1611   31.1721   -0.2854 C   0  0  0  0  0  0
   68.3470   31.4205   -0.2689 C   0  0  0  0  0  0
   67.8981   29.9595   -0.5281 C   0  0  0  0  0  0
   66.9148   28.5150    1.5902 H   0  0  0  0  0  0
   64.7818   27.7150    1.1211 H   0  0  0  0  0  0
   73.5438   32.4267   -1.3339 H   0  0  0  0  0  0
   71.7890   33.8544   -2.3338 H   0  0  0  0  0  0
   69.4180   33.4086   -1.8476 H   0  0  0  0  0  0
   70.5608   30.1150    0.6581 H   0  0  0  0  0  0
   72.9354   30.5648    0.1634 H   0  0  0  0  0  0
   67.7079   32.1145   -0.8160 H   0  0  0  0  0  0
   68.2180   31.6616    0.7840 H   0  0  0  0  0  0
   68.5711   29.2800   -0.0160 H   0  0  0  0  0  0
   68.0200   29.7168   -1.5845 H   0  0  0  0  0  0
  1  3  1  0  0  0
  1  2  2  0  0  0
  1 12  1  0  0  0
  3  4  1  0  0  0
  3 13  1  0  0  0
  4 14  1  0  0  0
  5 10  1  0  0  0
  5  6  2  0  0  0
  5 15  1  0  0  0
  6  7  1  0  0  0
  6 16  1  0  0  0
  7  8  2  0  0  0
  7 17  1  0  0  0
  8  9  1  0  0  0
  8 11  1  0  0  0
  9 10  2  0  0  0
  9 18  1  0  0  0
 10 19  1  0  0  0
 11 12  1  0  0  0
 11 20  1  0  0  0
 11 21  1  0  0  0
 12 22  1  0  0  0
 12 23  1  0  0  0
M  END
> <s_m_entry_id>
52356

> <s_m_entry_name>
dock_pv.78

> <s_m_Source_Path>
/home/csk/Desktop/cluster/DUD-E-result/hdac2

> <s_m_Source_File>
dock_pv.maegz

> <i_m_Source_File_Index>
78

> <chembl_id>
CHEMBL152162

> <chembl_pref_name>
None

> <i_lp_mmshare_version>
53161

> <i_f3d_flags>
0

> <r_lp_tautomer_probability>
1

> <s_lp_Force_Field>
OPLS_2005

> <r_lp_Energy>
11.150051

> <b_lp_Chiralities_Consistent>
1

> <s_lp_Variant>
CHEMBL1937_lig73-1

> <s_i_glide_gridfile>
glide-grid_3max

> <i_i_glide_lignum>
81

> <i_i_glide_rotatable_bonds>
5

> <r_i_docking_score>
-7.45168507482169

> <r_i_glide_ligand_efficiency>
-0.620973756235141

> <r_i_glide_ligand_efficiency_sa>
-1.42167500485084

> <r_i_glide_ligand_efficiency_ln>
-2.13827394064487

> <r_i_glide_gscore>
-7.45168507482169

> <r_i_glide_lipo>
-1.32849296151455

> <r_i_glide_hbond>
-0.291379047852277

> <r_i_glide_metal>
-2.3

> <r_i_glide_rewards>
-2.6

> <r_i_glide_evdw>
-21.2571754455566

> <r_i_glide_ecoul>
-9.61612415313721

> <r_i_glide_erotb>
1.67783833161886

> <r_i_glide_esite>
-0.104374001825317

> <r_i_glide_emodel>
-47.2951238130757

> <r_i_glide_energy>
-30.8732995986938

> <r_i_glide_einternal>
3.82840132713318

> <i_i_glide_confnum>
3

> <i_i_glide_posenum>
51

> <r_i_glide_eff_state_penalty>
0

> <s_user_duplicate_titles>
CHEMBL1937_lig73

> <s_m_subgroup_title>
dock_pv

> <s_m_subgroupid>
dock_pv

> <b_m_subgroup_collapsed>
1

$$$$
CHEMBL1937_lig779
                    3D
 Schrodinger Suite 2021-1.
 36 37  0  0  1  0            999 V2000
   73.4180   33.7800    0.7415 C   0  0  0  0  0  0
   73.5697   33.0574   -0.6113 C   0  0  0  0  0  0
   75.0667   32.7488   -0.8225 C   0  0  0  0  0  0
   72.8615   31.7725   -0.5632 N   0  0  0  0  0  0
   71.4779   31.5386   -0.4960 C   0  0  0  0  0  0
   70.5531   32.5395   -0.5517 N   0  0  0  0  0  0
   69.2410   32.1591   -0.5082 C   0  0  0  0  0  0
   68.8432   30.8152   -0.4285 C   0  0  0  0  0  0
   69.8687   29.8835   -0.4160 C   0  0  0  0  0  0
   71.1759   30.2263   -0.4160 N   0  0  0  0  0  0
   67.4087   30.3739   -0.4532 C   0  0  0  0  0  0
   66.6180   30.9150   -1.2160 O   0  0  0  0  0  0
   67.0180   29.3987    0.3840 N   0  0  0  0  0  0
   65.7079   28.8965    0.2734 O   0  0  0  0  0  0
   73.0903   33.9341   -1.7938 C   0  0  0  0  0  0
   73.1129   35.3358   -1.7141 C   0  0  0  0  0  0
   72.7043   36.1191   -2.7882 C   0  0  0  0  0  0
   72.2905   35.5198   -3.9739 C   0  0  0  0  0  0
   71.8180   36.5453   -5.2733 Cl  0  0  0  0  0  0
   72.2817   34.1236   -4.0850 C   0  0  0  0  0  0
   71.8180   33.3150   -5.5405 Cl  0  0  0  0  0  0
   72.6742   33.3476   -2.9979 C   0  0  0  0  0  0
   74.1597   34.5672    0.8807 H   0  0  0  0  0  0
   72.4368   34.2474    0.7840 H   0  0  0  0  0  0
   73.5238   33.0959    1.5840 H   0  0  0  0  0  0
   75.6649   33.6601   -0.8608 H   0  0  0  0  0  0
   75.4695   32.1329   -0.0159 H   0  0  0  0  0  0
   75.2399   32.2101   -1.7555 H   0  0  0  0  0  0
   73.4383   30.9727   -0.3414 H   0  0  0  0  0  0
   68.5089   32.9528   -0.5473 H   0  0  0  0  0  0
   69.6539   28.8294   -0.4165 H   0  0  0  0  0  0
   67.5966   28.9150    1.0694 H   0  0  0  0  0  0
   65.8269   28.0240   -0.1170 H   0  0  0  0  0  0
   73.4488   35.8415   -0.8223 H   0  0  0  0  0  0
   72.7221   37.1961   -2.7044 H   0  0  0  0  0  0
   72.6575   32.2732   -3.0918 H   0  0  0  0  0  0
  1  2  1  0  0  0
  1 23  1  0  0  0
  1 24  1  0  0  0
  1 25  1  0  0  0
  2  3  1  0  0  0
  2  4  1  0  0  0
  2 15  1  0  0  0
  3 26  1  0  0  0
  3 27  1  0  0  0
  3 28  1  0  0  0
  4  5  1  0  0  0
  4 29  1  0  0  0
  5  6  2  0  0  0
  5 10  1  0  0  0
  6  7  1  0  0  0
  7  8  2  0  0  0
  7 30  1  0  0  0
  8  9  1  0  0  0
  8 11  1  0  0  0
  9 10  2  0  0  0
  9 31  1  0  0  0
 11 12  2  0  0  0
 11 13  1  0  0  0
 13 14  1  0  0  0
 13 32  1  0  0  0
 14 33  1  0  0  0
 15 16  2  0  0  0
 15 22  1  0  0  0
 16 17  1  0  0  0
 16 34  1  0  0  0
 17 18  2  0  0  0
 17 35  1  0  0  0
 18 19  1  0  0  0
 18 20  1  0  0  0
 20 21  1  0  0  0
 20 22  2  0  0  0
 22 36  1  0  0  0
M  END
> <s_m_entry_id>
52357

> <s_m_entry_name>
dock_pv.79

> <s_m_Source_Path>
/home/csk/Desktop/cluster/DUD-E-result/hdac2

> <s_m_Source_File>
dock_pv.maegz

> <i_m_Source_File_Index>
79

> <chembl_id>
CHEMBL3655957

> <chembl_pref_name>
None

> <i_lp_mmshare_version>
53161

> <i_f3d_flags>
0

> <r_lp_tautomer_probability>
0.999999987636

> <s_lp_Force_Field>
OPLS_2005

> <r_lp_Energy>
15.454699

> <b_lp_Chiralities_Consistent>
1

> <s_lp_Variant>
CHEMBL1937_lig779-1

> <s_i_glide_gridfile>
glide-grid_3max

> <i_i_glide_lignum>
852

> <i_i_glide_rotatable_bonds>
6

> <r_i_docking_score>
-7.41793187357948

> <r_i_glide_ligand_efficiency>
-0.33717872152634

> <r_i_glide_ligand_efficiency_sa>
-0.944788038203445

> <r_i_glide_ligand_efficiency_ln>
-1.81321312554216

> <r_i_glide_gscore>
-7.41793187357948

> <r_i_glide_lipo>
-1.54966492584404

> <r_i_glide_hbond>
-0.32

> <r_i_glide_metal>
-2.3

> <r_i_glide_rewards>
-1.1752266291153

> <r_i_glide_evdw>
-22.3391857147217

> <r_i_glide_ecoul>
-10.6050567626953

> <r_i_glide_erotb>
0.813785056123154

> <r_i_glide_esite>
-0.179107574602918

> <r_i_glide_emodel>
-46.3330878694435

> <r_i_glide_energy>
-32.944242477417

> <r_i_glide_einternal>
4.25064659118652

> <i_i_glide_confnum>
16

> <i_i_glide_posenum>
188

> <r_i_glide_eff_state_penalty>
0

> <s_user_duplicate_titles>
CHEMBL1937_lig779

> <s_m_subgroup_title>
dock_pv

> <s_m_subgroupid>
dock_pv

> <b_m_subgroup_collapsed>
1

$$$$
CHEMBL1937_lig667
                    3D
 Schrodinger Suite 2021-1.
 37 39  0  0  1  0            999 V2000
   65.7155   28.8527    0.2596 O   0  0  0  0  0  0
   67.0180   29.3718    0.3840 N   0  0  0  0  0  0
   67.4070   30.3510   -0.4493 C   0  0  0  0  0  0
   66.6180   30.8844   -1.2160 O   0  0  0  0  0  0
   68.8222   30.8502   -0.4160 C   0  0  0  0  0  0
   69.9111   29.9860   -0.4160 C   0  0  0  0  0  0
   71.1945   30.4233   -0.4303 N   0  0  0  0  0  0
   71.3980   31.7555   -0.5232 C   0  0  0  0  0  0
   72.7499   32.1216   -0.5840 N   0  0  0  0  0  0
   73.2462   33.4699   -0.8306 C   0  0  0  0  0  0
   73.3257   34.4041    0.3641 C   0  0  0  0  0  0
   74.5803   33.7806   -0.1734 C   0  0  0  0  0  0
   73.0001   34.0181   -2.2348 C   0  0  0  0  0  0
   71.8737   34.7953   -2.5196 C   0  0  0  0  0  0
   71.6815   35.3150   -3.7996 C   0  0  0  0  0  0
   72.6241   35.0766   -4.7986 C   0  0  0  0  0  0
   73.7629   34.3074   -4.5296 C   0  0  0  0  0  0
   73.9339   33.7722   -3.2471 C   0  0  0  0  0  0
   74.8280   34.0647   -5.5970 C   0  0  0  0  0  0
   75.9529   34.6874   -5.2465 F   0  0  0  0  0  0
   75.0757   32.7596   -5.7003 F   0  0  0  0  0  0
   74.4574   34.5150   -6.7967 F   0  0  0  0  0  0
   70.4046   32.6856   -0.5656 N   0  0  0  0  0  0
   69.1274   32.2162   -0.4973 C   0  0  0  0  0  0
   65.8494   27.9836   -0.1338 H   0  0  0  0  0  0
   67.5953   28.9001    1.0785 H   0  0  0  0  0  0
   69.7748   28.9150   -0.4160 H   0  0  0  0  0  0
   73.4348   31.3852   -0.4867 H   0  0  0  0  0  0
   73.1620   35.4711    0.2126 H   0  0  0  0  0  0
   73.0180   34.0679    1.3529 H   0  0  0  0  0  0
   75.0744   33.0132    0.4270 H   0  0  0  0  0  0
   75.2959   34.4225   -0.6880 H   0  0  0  0  0  0
   71.1506   35.0010   -1.7462 H   0  0  0  0  0  0
   70.8113   35.9186   -4.0160 H   0  0  0  0  0  0
   72.4711   35.5076   -5.7767 H   0  0  0  0  0  0
   74.8111   33.1799   -3.0266 H   0  0  0  0  0  0
   68.3429   32.9586   -0.5277 H   0  0  0  0  0  0
  1  2  1  0  0  0
  1 25  1  0  0  0
  2  3  1  0  0  0
  2 26  1  0  0  0
  3  4  2  0  0  0
  3  5  1  0  0  0
  5  6  2  0  0  0
  5 24  1  0  0  0
  6  7  1  0  0  0
  6 27  1  0  0  0
  7  8  2  0  0  0
  8  9  1  0  0  0
  8 23  1  0  0  0
  9 10  1  0  0  0
  9 28  1  0  0  0
 10 11  1  0  0  0
 10 12  1  0  0  0
 10 13  1  0  0  0
 11 12  1  0  0  0
 11 29  1  0  0  0
 11 30  1  0  0  0
 12 31  1  0  0  0
 12 32  1  0  0  0
 13 14  2  0  0  0
 13 18  1  0  0  0
 14 15  1  0  0  0
 14 33  1  0  0  0
 15 16  2  0  0  0
 15 34  1  0  0  0
 16 17  1  0  0  0
 16 35  1  0  0  0
 17 18  2  0  0  0
 17 19  1  0  0  0
 18 36  1  0  0  0
 19 20  1  0  0  0
 19 21  1  0  0  0
 19 22  1  0  0  0
 23 24  2  0  0  0
 24 37  1  0  0  0
M  END
> <s_m_entry_id>
52359

> <s_m_entry_name>
dock_pv.81

> <s_m_Source_Path>
/home/csk/Desktop/cluster/DUD-E-result/hdac2

> <s_m_Source_File>
dock_pv.maegz

> <i_m_Source_File_Index>
81

> <chembl_id>
CHEMBL3655990

> <chembl_pref_name>
None

> <i_lp_mmshare_version>
53161

> <i_f3d_flags>
0

> <r_lp_tautomer_probability>
0.999999987636

> <s_lp_Force_Field>
OPLS_2005

> <r_lp_Energy>
21.587832

> <b_lp_Chiralities_Consistent>
1

> <s_lp_Variant>
CHEMBL1937_lig667-1

> <s_i_glide_gridfile>
glide-grid_3max

> <i_i_glide_lignum>
738

> <i_i_glide_rotatable_bonds>
7

> <r_i_docking_score>
-7.34894374451223

> <r_i_glide_ligand_efficiency>
-0.306205989354676

> <r_i_glide_ligand_efficiency_sa>
-0.883250912209001

> <r_i_glide_ligand_efficiency_ln>
-1.75893945911659

> <r_i_glide_gscore>
-7.34894374451223

> <r_i_glide_lipo>
-1.41114585393365

> <r_i_glide_hbond>
-0.32

> <r_i_glide_metal>
-2.3

> <r_i_glide_rewards>
-1.18818966274005

> <r_i_glide_evdw>
-23.6065044403076

> <r_i_glide_ecoul>
-10.6183061599731

> <r_i_glide_erotb>
0.826224010368711

> <r_i_glide_esite>
-0.182761092195886

> <r_i_glide_emodel>
-50.3046647283275

> <r_i_glide_energy>
-34.2248106002808

> <r_i_glide_einternal>
4.58816146850586

> <i_i_glide_confnum>
86

> <i_i_glide_posenum>
246

> <r_i_glide_eff_state_penalty>
0

> <s_user_duplicate_titles>
CHEMBL1937_lig667

> <s_m_subgroup_title>
dock_pv

> <s_m_subgroupid>
dock_pv

> <b_m_subgroup_collapsed>
1

$$$$
CHEMBL1937_lig648
                    3D
 Schrodinger Suite 2021-1.
 36 37  0  0  1  0            999 V2000
   73.0180   34.2114    0.3945 C   0  0  0  0  0  0
   73.3289   33.5352   -0.9574 C   0  0  0  0  0  0
   74.8573   33.3446   -1.0648 C   0  0  0  0  0  0
   72.7383   32.1880   -0.9570 N   0  0  0  0  0  0
   71.3913   31.8384   -0.7658 C   0  0  0  0  0  0
   70.3890   32.7586   -0.8159 N   0  0  0  0  0  0
   69.1222   32.2814   -0.6522 C   0  0  0  0  0  0
   68.8308   30.9225   -0.4604 C   0  0  0  0  0  0
   69.9305   30.0751   -0.4349 C   0  0  0  0  0  0
   71.2058   30.5150   -0.5653 N   0  0  0  0  0  0
   67.4180   30.4033   -0.4561 C   0  0  0  0  0  0
   66.6116   30.9150   -1.2160 O   0  0  0  0  0  0
   67.0511   29.4216    0.3840 N   0  0  0  0  0  0
   65.7510   28.8924    0.2776 O   0  0  0  0  0  0
   72.8654   34.4127   -2.1561 C   0  0  0  0  0  0
   72.2214   33.8526   -3.2746 C   0  0  0  0  0  0
   71.8575   34.6386   -4.3667 C   0  0  0  0  0  0
   72.1372   36.0020   -4.3684 C   0  0  0  0  0  0
   71.8180   36.7681   -5.4328 F   0  0  0  0  0  0
   72.7696   36.5787   -3.2761 C   0  0  0  0  0  0
   73.1412   35.7965   -2.1864 C   0  0  0  0  0  0
   73.7997   36.4095   -1.1781 F   0  0  0  0  0  0
   73.7044   35.0192    0.6433 H   0  0  0  0  0  0
   72.0113   34.6265    0.3840 H   0  0  0  0  0  0
   73.0830   33.5038    1.2224 H   0  0  0  0  0  0
   75.3897   34.2960   -1.0385 H   0  0  0  0  0  0
   75.2473   32.7406   -0.2426 H   0  0  0  0  0  0
   75.1355   32.8457   -1.9944 H   0  0  0  0  0  0
   73.3855   31.4409   -0.7489 H   0  0  0  0  0  0
   68.3255   33.0043   -0.7262 H   0  0  0  0  0  0
   69.7971   29.0073   -0.4160 H   0  0  0  0  0  0
   67.6411   28.9400    1.0625 H   0  0  0  0  0  0
   65.8857   28.0257   -0.1202 H   0  0  0  0  0  0
   72.0060   32.7964   -3.3129 H   0  0  0  0  0  0
   71.3733   34.1862   -5.2160 H   0  0  0  0  0  0
   72.9932   37.6347   -3.2826 H   0  0  0  0  0  0
  1  2  1  0  0  0
  1 23  1  0  0  0
  1 24  1  0  0  0
  1 25  1  0  0  0
  2  3  1  0  0  0
  2  4  1  0  0  0
  2 15  1  0  0  0
  3 26  1  0  0  0
  3 27  1  0  0  0
  3 28  1  0  0  0
  4  5  1  0  0  0
  4 29  1  0  0  0
  5  6  2  0  0  0
  5 10  1  0  0  0
  6  7  1  0  0  0
  7  8  2  0  0  0
  7 30  1  0  0  0
  8  9  1  0  0  0
  8 11  1  0  0  0
  9 10  2  0  0  0
  9 31  1  0  0  0
 11 12  2  0  0  0
 11 13  1  0  0  0
 13 14  1  0  0  0
 13 32  1  0  0  0
 14 33  1  0  0  0
 15 16  2  0  0  0
 15 21  1  0  0  0
 16 17  1  0  0  0
 16 34  1  0  0  0
 17 18  2  0  0  0
 17 35  1  0  0  0
 18 19  1  0  0  0
 18 20  1  0  0  0
 20 21  2  0  0  0
 20 36  1  0  0  0
 21 22  1  0  0  0
M  END
> <s_m_entry_id>
52360

> <s_m_entry_name>
dock_pv.82

> <s_m_Source_Path>
/home/csk/Desktop/cluster/DUD-E-result/hdac2

> <s_m_Source_File>
dock_pv.maegz

> <i_m_Source_File_Index>
82

> <chembl_id>
CHEMBL3655947

> <chembl_pref_name>
None

> <i_lp_mmshare_version>
53161

> <i_f3d_flags>
0

> <r_lp_tautomer_probability>
0.999999987636

> <s_lp_Force_Field>
OPLS_2005

> <r_lp_Energy>
16.851382

> <b_lp_Chiralities_Consistent>
1

> <s_lp_Variant>
CHEMBL1937_lig648-1

> <s_i_glide_gridfile>
glide-grid_3max

> <i_i_glide_lignum>
719

> <i_i_glide_rotatable_bonds>
6

> <r_i_docking_score>
-7.32909355232519

> <r_i_glide_ligand_efficiency>
-0.333140616014781

> <r_i_glide_ligand_efficiency_sa>
-0.93347310775038

> <r_i_glide_ligand_efficiency_ln>
-1.79149779937111

> <r_i_glide_gscore>
-7.32909355232519

> <r_i_glide_lipo>
-1.57160951594564

> <r_i_glide_hbond>
-0.32

> <r_i_glide_metal>
-2.3

> <r_i_glide_rewards>
-1.49108739323331

> <r_i_glide_evdw>
-20.9359264373779

> <r_i_glide_ecoul>
-9.29311084747314

> <r_i_glide_erotb>
0.973249770429317

> <r_i_glide_esite>
-0.178883464585688

> <r_i_glide_emodel>
-41.8881661427674

> <r_i_glide_energy>
-30.2290372848511

> <r_i_glide_einternal>
6.64371061325073

> <i_i_glide_confnum>
58

> <i_i_glide_posenum>
101

> <r_i_glide_eff_state_penalty>
0

> <s_user_duplicate_titles>
CHEMBL1937_lig648

> <s_m_subgroup_title>
dock_pv

> <s_m_subgroupid>
dock_pv

> <b_m_subgroup_collapsed>
1

$$$$
CHEMBL1937_lig78
                    3D
 Schrodinger Suite 2021-1.
 36 37  0  0  1  0            999 V2000
   73.8225   35.3801    1.8386 C   0  0  0  0  0  0
   75.1272   34.9456    1.6161 C   0  0  0  0  0  0
   75.6307   34.8476    0.3210 C   0  0  0  0  0  0
   74.8156   35.1652   -0.7627 C   0  0  0  0  0  0
   73.4921   35.5628   -0.5489 C   0  0  0  0  0  0
   73.0076   35.6959    0.7541 C   0  0  0  0  0  0
   72.6180   35.8011   -1.6175 N   0  0  0  0  0  0
   72.3489   34.5503   -2.8421 S   0  0  0  0  0  0
   71.9175   33.1002   -1.8963 C   0  0  0  0  0  0
   70.5787   32.7818   -1.6507 C   0  0  0  0  0  0
   70.2393   31.6087   -0.9687 C   0  0  0  0  0  0
   71.2750   30.7952   -0.4930 C   0  0  0  0  0  0
   72.6111   31.1446   -0.6696 C   0  0  0  0  0  0
   72.9339   32.2914   -1.3844 C   0  0  0  0  0  0
   73.6284   34.2870   -3.5095 O   0  0  0  0  0  0
   71.1607   34.9468   -3.6059 O   0  0  0  0  0  0
   68.8159   31.2335   -0.8160 C   0  0  0  0  0  0
   68.3695   30.0524   -0.3426 C   0  0  0  0  0  0
   66.9781   29.7150   -0.2518 C   0  0  0  0  0  0
   66.2180   29.7506   -1.2159 O   0  0  0  0  0  0
   66.6179   29.3150    0.9746 N   0  0  0  0  0  0
   65.2909   28.9144    1.2009 O   0  0  0  0  0  0
   73.4436   35.4572    2.8471 H   0  0  0  0  0  0
   75.7562   34.6782    2.4542 H   0  0  0  0  0  0
   76.6458   34.5147    0.1601 H   0  0  0  0  0  0
   75.2128   35.0797   -1.7629 H   0  0  0  0  0  0
   71.9907   36.0129    0.9318 H   0  0  0  0  0  0
   71.7636   36.2783   -1.3784 H   0  0  0  0  0  0
   69.8011   33.4284   -2.0302 H   0  0  0  0  0  0
   71.0560   29.8599   -0.0160 H   0  0  0  0  0  0
   73.3966   30.5074   -0.2866 H   0  0  0  0  0  0
   73.9732   32.5394   -1.5466 H   0  0  0  0  0  0
   68.0958   31.9832   -1.1108 H   0  0  0  0  0  0
   69.0390   29.2748   -0.0160 H   0  0  0  0  0  0
   67.2425   29.1552    1.7596 H   0  0  0  0  0  0
   65.3454   27.9549    1.2491 H   0  0  0  0  0  0
  1  6  1  0  0  0
  1  2  2  0  0  0
  1 23  1  0  0  0
  2  3  1  0  0  0
  2 24  1  0  0  0
  3  4  2  0  0  0
  3 25  1  0  0  0
  4  5  1  0  0  0
  4 26  1  0  0  0
  5  6  2  0  0  0
  5  7  1  0  0  0
  6 27  1  0  0  0
  7  8  1  0  0  0
  7 28  1  0  0  0
  8 15  2  0  0  0
  8 16  2  0  0  0
  8  9  1  0  0  0
  9 14  1  0  0  0
  9 10  2  0  0  0
 10 11  1  0  0  0
 10 29  1  0  0  0
 11 12  2  0  0  0
 11 17  1  0  0  0
 12 13  1  0  0  0
 12 30  1  0  0  0
 13 14  2  0  0  0
 13 31  1  0  0  0
 14 32  1  0  0  0
 17 18  2  0  0  0
 17 33  1  0  0  0
 18 19  1  0  0  0
 18 34  1  0  0  0
 19 20  2  0  0  0
 19 21  1  0  0  0
 21 22  1  0  0  0
 21 35  1  0  0  0
 22 36  1  0  0  0
M  END
> <s_m_entry_id>
52361

> <s_m_entry_name>
dock_pv.83

> <s_m_Source_Path>
/home/csk/Desktop/cluster/DUD-E-result/hdac2

> <s_m_Source_File>
dock_pv.maegz

> <i_m_Source_File_Index>
83

> <chembl_id>
CHEMBL408513

> <chembl_pref_name>
BELINOSTAT

> <i_lp_mmshare_version>
53161

> <i_f3d_flags>
0

> <r_lp_tautomer_probability>
1

> <s_lp_Force_Field>
OPLS_2005

> <r_lp_Energy>
15.659538

> <b_lp_Chiralities_Consistent>
1

> <s_lp_Variant>
CHEMBL1937_lig78-1

> <s_i_glide_gridfile>
glide-grid_3max

> <i_i_glide_lignum>
86

> <i_i_glide_rotatable_bonds>
7

> <r_i_docking_score>
-7.32523574836319

> <r_i_glide_ligand_efficiency>
-0.332965261289236

> <r_i_glide_ligand_efficiency_sa>
-0.932981756913092

> <r_i_glide_ligand_efficiency_ln>
-1.79055481136597

> <r_i_glide_gscore>
-7.32523574836319

> <r_i_glide_lipo>
-1.57134265193116

> <r_i_glide_hbond>
-0.255260256047162

> <r_i_glide_metal>
-2.3

> <r_i_glide_rewards>
-1.17381021334244

> <r_i_glide_evdw>
-26.6387844085693

> <r_i_glide_ecoul>
-10.8083515167236

> <r_i_glide_erotb>
1.10376324055132

> <r_i_glide_esite>
-0.175393919656745

> <r_i_glide_emodel>
-54.2930536001611

> <r_i_glide_energy>
-37.447135925293

> <r_i_glide_einternal>
4.38443517684937

> <i_i_glide_confnum>
57

> <i_i_glide_posenum>
195

> <r_i_glide_eff_state_penalty>
0

> <s_user_duplicate_titles>
CHEMBL1937_lig78,435188

> <s_m_subgroup_title>
dock_pv

> <s_m_subgroupid>
dock_pv

> <b_m_subgroup_collapsed>
1

$$$$
CHEMBL1937_lig786
                    3D
 Schrodinger Suite 2021-1.
 37 39  0  0  1  0            999 V2000
   72.4409   38.0336   -2.9624 C   0  0  0  0  0  0
   72.4230   36.5145   -2.9650 C   0  0  0  0  0  0
   72.7347   35.7993   -1.8065 C   0  0  0  0  0  0
   72.7310   34.3965   -1.7981 C   0  0  0  0  0  0
   72.4055   33.7240   -2.9873 C   0  0  0  0  0  0
   72.0861   34.4319   -4.1452 C   0  0  0  0  0  0
   72.1009   35.8240   -4.1337 C   0  0  0  0  0  0
   71.8176   36.5065   -5.2632 F   0  0  0  0  0  0
   73.1207   33.6103   -0.5293 C   0  0  0  0  0  0
   73.2727   34.2816    0.8269 C   0  0  0  0  0  0
   74.4966   33.8633    0.0608 C   0  0  0  0  0  0
   72.6877   32.2179   -0.4619 N   0  0  0  0  0  0
   71.3481   31.8093   -0.4381 C   0  0  0  0  0  0
   70.3325   32.7165   -0.4524 N   0  0  0  0  0  0
   69.0681   32.2143   -0.4174 C   0  0  0  0  0  0
   68.7993   30.8392   -0.3915 C   0  0  0  0  0  0
   69.9081   30.0028   -0.4187 C   0  0  0  0  0  0
   71.1808   30.4697   -0.4164 N   0  0  0  0  0  0
   67.3969   30.3121   -0.4405 C   0  0  0  0  0  0
   66.6131   30.8347   -1.2156 O   0  0  0  0  0  0
   67.0180   29.3248    0.3839 N   0  0  0  0  0  0
   65.7196   28.7951    0.2572 O   0  0  0  0  0  0
   73.2022   38.4008   -3.6512 H   0  0  0  0  0  0
   71.4811   38.4168   -3.3104 H   0  0  0  0  0  0
   72.6376   38.4496   -1.9741 H   0  0  0  0  0  0
   72.9981   36.3521   -0.9193 H   0  0  0  0  0  0
   72.4066   32.6446   -3.0218 H   0  0  0  0  0  0
   71.8414   33.9071   -5.0567 H   0  0  0  0  0  0
   73.0655   35.3414    0.9572 H   0  0  0  0  0  0
   73.0287   33.7153    1.7247 H   0  0  0  0  0  0
   75.0831   33.0254    0.4443 H   0  0  0  0  0  0
   75.1274   34.6371   -0.3777 H   0  0  0  0  0  0
   73.3981   31.5085   -0.3508 H   0  0  0  0  0  0
   68.2654   32.9366   -0.4204 H   0  0  0  0  0  0
   69.7967   28.9308   -0.4536 H   0  0  0  0  0  0
   67.5945   28.8609    1.0853 H   0  0  0  0  0  0
   65.8610   27.9307   -0.1438 H   0  0  0  0  0  0
  1  2  1  0  0  0
  1 23  1  0  0  0
  1 24  1  0  0  0
  1 25  1  0  0  0
  2  3  2  0  0  0
  2  7  1  0  0  0
  3  4  1  0  0  0
  3 26  1  0  0  0
  4  5  2  0  0  0
  4  9  1  0  0  0
  5  6  1  0  0  0
  5 27  1  0  0  0
  6  7  2  0  0  0
  6 28  1  0  0  0
  7  8  1  0  0  0
  9 10  1  0  0  0
  9 11  1  0  0  0
  9 12  1  0  0  0
 10 11  1  0  0  0
 10 29  1  0  0  0
 10 30  1  0  0  0
 11 31  1  0  0  0
 11 32  1  0  0  0
 12 13  1  0  0  0
 12 33  1  0  0  0
 13 14  2  0  0  0
 13 18  1  0  0  0
 14 15  1  0  0  0
 15 16  2  0  0  0
 15 34  1  0  0  0
 16 17  1  0  0  0
 16 19  1  0  0  0
 17 18  2  0  0  0
 17 35  1  0  0  0
 19 20  2  0  0  0
 19 21  1  0  0  0
 21 22  1  0  0  0
 21 36  1  0  0  0
 22 37  1  0  0  0
M  END
> <s_m_entry_id>
52362

> <s_m_entry_name>
dock_pv.84

> <s_m_Source_Path>
/home/csk/Desktop/cluster/DUD-E-result/hdac2

> <s_m_Source_File>
dock_pv.maegz

> <i_m_Source_File_Index>
84

> <chembl_id>
CHEMBL3656011

> <chembl_pref_name>
None

> <i_lp_mmshare_version>
53161

> <i_f3d_flags>
0

> <r_lp_tautomer_probability>
0.999999987636

> <s_lp_Force_Field>
OPLS_2005

> <r_lp_Energy>
21.215036

> <b_lp_Chiralities_Consistent>
1

> <s_lp_Variant>
CHEMBL1937_lig786-1

> <s_i_glide_gridfile>
glide-grid_3max

> <i_i_glide_lignum>
859

> <i_i_glide_rotatable_bonds>
6

> <r_i_docking_score>
-7.32193900949209

> <r_i_glide_ligand_efficiency>
-0.332815409522368

> <r_i_glide_ligand_efficiency_sa>
-0.932561866368991

> <r_i_glide_ligand_efficiency_ln>
-1.7897489681344

> <r_i_glide_gscore>
-7.32193900949209

> <r_i_glide_lipo>
-1.54294807893861

> <r_i_glide_hbond>
-0.32

> <r_i_glide_metal>
-2.3

> <r_i_glide_rewards>
-1.42154597535898

> <r_i_glide_evdw>
-22.0224304199219

> <r_i_glide_ecoul>
-9.730055809021

> <r_i_glide_erotb>
1.00725363478977

> <r_i_glide_esite>
-0.184068697635019

> <r_i_glide_emodel>
-45.7792729360192

> <r_i_glide_energy>
-31.7524862289429

> <r_i_glide_einternal>
5.32921314239502

> <i_i_glide_confnum>
54

> <i_i_glide_posenum>
187

> <r_i_glide_eff_state_penalty>
0

> <s_user_duplicate_titles>
CHEMBL1937_lig786

> <s_m_subgroup_title>
dock_pv

> <s_m_subgroupid>
dock_pv

> <b_m_subgroup_collapsed>
1

$$$$
CHEMBL1937_lig697
                    3D
 Schrodinger Suite 2021-1.
 36 37  0  0  1  0            999 V2000
   73.2413   34.1415    0.5913 C   0  0  0  0  0  0
   73.3762   33.4034   -0.7615 C   0  0  0  0  0  0
   74.8834   33.2007   -1.0255 C   0  0  0  0  0  0
   72.7727   32.0685   -0.6567 N   0  0  0  0  0  0
   71.4128   31.7393   -0.5392 C   0  0  0  0  0  0
   70.4315   32.6824   -0.5769 N   0  0  0  0  0  0
   69.1487   32.2268   -0.5008 C   0  0  0  0  0  0
   68.8275   30.8636   -0.4162 C   0  0  0  0  0  0
   69.9057   29.9865   -0.4161 C   0  0  0  0  0  0
   71.1927   30.4104   -0.4392 N   0  0  0  0  0  0
   67.4081   30.3752   -0.4496 C   0  0  0  0  0  0
   66.6180   30.9115   -1.2160 O   0  0  0  0  0  0
   67.0180   29.3955    0.3839 N   0  0  0  0  0  0
   65.7137   28.8812    0.2601 O   0  0  0  0  0  0
   72.7906   34.2078   -1.9535 C   0  0  0  0  0  0
   72.6911   35.6075   -1.9004 C   0  0  0  0  0  0
   72.2180   36.3277   -2.9920 C   0  0  0  0  0  0
   71.8510   35.6576   -4.1521 C   0  0  0  0  0  0
   71.4182   36.3618   -5.2159 F   0  0  0  0  0  0
   71.9418   34.2731   -4.2321 C   0  0  0  0  0  0
   72.4146   33.5543   -3.1388 C   0  0  0  0  0  0
   73.8951   35.0117    0.6549 H   0  0  0  0  0  0
   72.2234   34.4917    0.7512 H   0  0  0  0  0  0
   73.5068   33.4947    1.4296 H   0  0  0  0  0  0
   75.4077   34.1531   -1.1152 H   0  0  0  0  0  0
   75.3638   32.6439   -0.2178 H   0  0  0  0  0  0
   75.0614   32.6473   -1.9489 H   0  0  0  0  0  0
   73.4139   31.3149   -0.4532 H   0  0  0  0  0  0
   68.3728   32.9782   -0.5327 H   0  0  0  0  0  0
   69.7589   28.9152   -0.4160 H   0  0  0  0  0  0
   67.5954   28.9150    1.0726 H   0  0  0  0  0  0
   65.8442   28.0118   -0.1333 H   0  0  0  0  0  0
   72.9878   36.1593   -1.0224 H   0  0  0  0  0  0
   72.1455   37.4041   -2.9470 H   0  0  0  0  0  0
   71.6625   33.7671   -5.1441 H   0  0  0  0  0  0
   72.4993   32.4819   -3.2160 H   0  0  0  0  0  0
  1  2  1  0  0  0
  1 22  1  0  0  0
  1 23  1  0  0  0
  1 24  1  0  0  0
  2  3  1  0  0  0
  2  4  1  0  0  0
  2 15  1  0  0  0
  3 25  1  0  0  0
  3 26  1  0  0  0
  3 27  1  0  0  0
  4  5  1  0  0  0
  4 28  1  0  0  0
  5  6  2  0  0  0
  5 10  1  0  0  0
  6  7  1  0  0  0
  7  8  2  0  0  0
  7 29  1  0  0  0
  8  9  1  0  0  0
  8 11  1  0  0  0
  9 10  2  0  0  0
  9 30  1  0  0  0
 11 12  2  0  0  0
 11 13  1  0  0  0
 13 14  1  0  0  0
 13 31  1  0  0  0
 14 32  1  0  0  0
 15 16  2  0  0  0
 15 21  1  0  0  0
 16 17  1  0  0  0
 16 33  1  0  0  0
 17 18  2  0  0  0
 17 34  1  0  0  0
 18 19  1  0  0  0
 18 20  1  0  0  0
 20 21  2  0  0  0
 20 35  1  0  0  0
 21 36  1  0  0  0
M  END
> <s_m_entry_id>
52363

> <s_m_entry_name>
dock_pv.85

> <s_m_Source_Path>
/home/csk/Desktop/cluster/DUD-E-result/hdac2

> <s_m_Source_File>
dock_pv.maegz

> <i_m_Source_File_Index>
85

> <chembl_id>
CHEMBL3639548

> <chembl_pref_name>
None

> <i_lp_mmshare_version>
53161

> <i_f3d_flags>
0

> <r_lp_tautomer_probability>
0.999999987636

> <s_lp_Force_Field>
OPLS_2005

> <r_lp_Energy>
15.057004

> <b_lp_Chiralities_Consistent>
1

> <s_lp_Variant>
CHEMBL1937_lig697-1

> <s_i_glide_gridfile>
glide-grid_3max

> <i_i_glide_lignum>
768

> <i_i_glide_rotatable_bonds>
6

> <r_i_docking_score>
-7.3036550292899

> <r_i_glide_ligand_efficiency>
-0.347793096632852

> <r_i_glide_ligand_efficiency_sa>
-0.959534781705056

> <r_i_glide_ligand_efficiency_ln>
-1.80581394756731

> <r_i_glide_gscore>
-7.3036550292899

> <r_i_glide_lipo>
-1.59331926550371

> <r_i_glide_hbond>
-0.32

> <r_i_glide_metal>
-2.3

> <r_i_glide_rewards>
-1.51712770503475

> <r_i_glide_evdw>
-21.1451511383057

> <r_i_glide_ecoul>
-9.41223907470703

> <r_i_glide_erotb>
1.08120741637202

> <r_i_glide_esite>
-0.185322057002109

> <r_i_glide_emodel>
-44.1819758376727

> <r_i_glide_energy>
-30.5573902130127

> <r_i_glide_einternal>
3.96257495880127

> <i_i_glide_confnum>
18

> <i_i_glide_posenum>
140

> <r_i_glide_eff_state_penalty>
0

> <s_user_duplicate_titles>
CHEMBL1937_lig697

> <s_m_subgroup_title>
dock_pv

> <s_m_subgroupid>
dock_pv

> <b_m_subgroup_collapsed>
1

$$$$
CHEMBL1937_lig717
                    3D
 Schrodinger Suite 2021-1.
 34 36  0  0  1  0            999 V2000
   65.7145   28.8609    0.2617 O   0  0  0  0  0  0
   67.0180   29.3779    0.3840 N   0  0  0  0  0  0
   67.4072   30.3562   -0.4502 C   0  0  0  0  0  0
   66.6180   30.8906   -1.2160 O   0  0  0  0  0  0
   68.8230   30.8531   -0.4160 C   0  0  0  0  0  0
   69.9100   29.9864   -0.4160 C   0  0  0  0  0  0
   71.1939   30.4220   -0.4160 N   0  0  0  0  0  0
   71.3997   31.7552   -0.4861 C   0  0  0  0  0  0
   72.7516   32.1239   -0.4890 N   0  0  0  0  0  0
   73.2432   33.4649   -0.7785 C   0  0  0  0  0  0
   73.3349   34.4377    0.3840 C   0  0  0  0  0  0
   74.5834   33.7934   -0.1465 C   0  0  0  0  0  0
   72.9926   33.9556   -2.2013 C   0  0  0  0  0  0
   72.0146   34.9180   -2.4668 C   0  0  0  0  0  0
   71.8122   35.3628   -3.7717 C   0  0  0  0  0  0
   72.5921   34.8467   -4.8046 C   0  0  0  0  0  0
   73.5689   33.8880   -4.5480 C   0  0  0  0  0  0
   73.7683   33.4425   -3.2442 C   0  0  0  0  0  0
   70.4089   32.6876   -0.5460 N   0  0  0  0  0  0
   69.1306   32.2190   -0.4947 C   0  0  0  0  0  0
   65.8465   27.9916   -0.1317 H   0  0  0  0  0  0
   67.5954   28.9059    1.0782 H   0  0  0  0  0  0
   69.7720   28.9150   -0.4161 H   0  0  0  0  0  0
   73.4374   31.3902   -0.3788 H   0  0  0  0  0  0
   73.1785   35.5010    0.2024 H   0  0  0  0  0  0
   73.0180   34.1327    1.3802 H   0  0  0  0  0  0
   75.0828   33.0450    0.4730 H   0  0  0  0  0  0
   75.2931   34.4113   -0.6974 H   0  0  0  0  0  0
   71.4180   35.3208   -1.6624 H   0  0  0  0  0  0
   71.0597   36.1095   -3.9836 H   0  0  0  0  0  0
   72.4453   35.2000   -5.8139 H   0  0  0  0  0  0
   74.1753   33.5001   -5.3532 H   0  0  0  0  0  0
   74.5292   32.7031   -3.0393 H   0  0  0  0  0  0
   68.3476   32.9627   -0.5303 H   0  0  0  0  0  0
  1  2  1  0  0  0
  1 21  1  0  0  0
  2  3  1  0  0  0
  2 22  1  0  0  0
  3  4  2  0  0  0
  3  5  1  0  0  0
  5  6  2  0  0  0
  5 20  1  0  0  0
  6  7  1  0  0  0
  6 23  1  0  0  0
  7  8  2  0  0  0
  8  9  1  0  0  0
  8 19  1  0  0  0
  9 10  1  0  0  0
  9 24  1  0  0  0
 10 11  1  0  0  0
 10 12  1  0  0  0
 10 13  1  0  0  0
 11 12  1  0  0  0
 11 25  1  0  0  0
 11 26  1  0  0  0
 12 27  1  0  0  0
 12 28  1  0  0  0
 13 14  2  0  0  0
 13 18  1  0  0  0
 14 15  1  0  0  0
 14 29  1  0  0  0
 15 16  2  0  0  0
 15 30  1  0  0  0
 16 17  1  0  0  0
 16 31  1  0  0  0
 17 18  2  0  0  0
 17 32  1  0  0  0
 18 33  1  0  0  0
 19 20  2  0  0  0
 20 34  1  0  0  0
M  END
> <s_m_entry_id>
52364

> <s_m_entry_name>
dock_pv.86

> <s_m_Source_Path>
/home/csk/Desktop/cluster/DUD-E-result/hdac2

> <s_m_Source_File>
dock_pv.maegz

> <i_m_Source_File_Index>
86

> <chembl_id>
CHEMBL3655950

> <chembl_pref_name>
None

> <i_lp_mmshare_version>
53161

> <i_f3d_flags>
0

> <r_lp_tautomer_probability>
0.999999987636

> <s_lp_Force_Field>
OPLS_2005

> <r_lp_Energy>
21.304857

> <b_lp_Chiralities_Consistent>
1

> <s_lp_Variant>
CHEMBL1937_lig717-1

> <s_i_glide_gridfile>
glide-grid_3max

> <i_i_glide_lignum>
789

> <i_i_glide_rotatable_bonds>
6

> <r_i_docking_score>
-7.30186527234996

> <r_i_glide_ligand_efficiency>
-0.365093263617498

> <r_i_glide_ligand_efficiency_sa>
-0.991015585473859

> <r_i_glide_ligand_efficiency_ln>
-1.82741604603437

> <r_i_glide_gscore>
-7.30186527234996

> <r_i_glide_lipo>
-1.44737066201293

> <r_i_glide_hbond>
-0.32

> <r_i_glide_metal>
-2.3

> <r_i_glide_rewards>
-1.65202222815102

> <r_i_glide_evdw>
-21.4274826049805

> <r_i_glide_ecoul>
-10.3362808227539

> <r_i_glide_erotb>
1.22397821666125

> <r_i_glide_esite>
-0.184634345185158

> <r_i_glide_emodel>
-46.4835322215725

> <r_i_glide_energy>
-31.7637634277344

> <r_i_glide_einternal>
4.96332597732544

> <i_i_glide_confnum>
88

> <i_i_glide_posenum>
319

> <r_i_glide_eff_state_penalty>
0

> <s_user_duplicate_titles>
CHEMBL1937_lig717

> <s_m_subgroup_title>
dock_pv

> <s_m_subgroupid>
dock_pv

> <b_m_subgroup_collapsed>
1

$$$$
CHEMBL1937_lig679
                    3D
 Schrodinger Suite 2021-1.
 37 39  0  0  1  0            999 V2000
   74.5083   33.5582   -5.7012 C   0  0  0  0  0  0
   73.6239   34.0269   -4.5611 C   0  0  0  0  0  0
   72.6034   34.9499   -4.7986 C   0  0  0  0  0  0
   71.7970   35.3877   -3.7492 C   0  0  0  0  0  0
   72.0077   34.9059   -2.4570 C   0  0  0  0  0  0
   73.0171   33.9716   -2.2087 C   0  0  0  0  0  0
   73.8218   33.5350   -3.2671 C   0  0  0  0  0  0
   73.2654   33.4422   -0.7988 C   0  0  0  0  0  0
   73.3409   34.3849    0.3896 C   0  0  0  0  0  0
   74.5980   33.7610   -0.1472 C   0  0  0  0  0  0
   72.7666   32.0976   -0.5404 N   0  0  0  0  0  0
   71.4113   31.7418   -0.5065 C   0  0  0  0  0  0
   71.1951   30.4114   -0.4165 N   0  0  0  0  0  0
   69.9080   29.9858   -0.4134 C   0  0  0  0  0  0
   68.8274   30.8606   -0.4169 C   0  0  0  0  0  0
   69.1452   32.2235   -0.5049 C   0  0  0  0  0  0
   70.4271   32.6814   -0.5660 N   0  0  0  0  0  0
   67.4084   30.3725   -0.4506 C   0  0  0  0  0  0
   66.6176   30.9083   -1.2160 O   0  0  0  0  0  0
   67.0182   29.3963    0.3857 N   0  0  0  0  0  0
   65.7140   28.8813    0.2629 O   0  0  0  0  0  0
   74.0316   33.7207   -6.6683 H   0  0  0  0  0  0
   75.4624   34.0858   -5.6839 H   0  0  0  0  0  0
   74.7123   32.4913   -5.6163 H   0  0  0  0  0  0
   72.4421   35.3408   -5.7918 H   0  0  0  0  0  0
   71.0179   36.1122   -3.9387 H   0  0  0  0  0  0
   71.3919   35.2586   -1.6444 H   0  0  0  0  0  0
   74.6086   32.8191   -3.0766 H   0  0  0  0  0  0
   73.1791   35.4515    0.2342 H   0  0  0  0  0  0
   73.0180   34.0512    1.3746 H   0  0  0  0  0  0
   75.0961   32.9991    0.4567 H   0  0  0  0  0  0
   75.3089   34.3967   -0.6757 H   0  0  0  0  0  0
   73.4481   31.3590   -0.4378 H   0  0  0  0  0  0
   69.7621   28.9153   -0.4160 H   0  0  0  0  0  0
   68.3681   32.9731   -0.5445 H   0  0  0  0  0  0
   67.5966   28.9150    1.0732 H   0  0  0  0  0  0
   65.8450   28.0115   -0.1297 H   0  0  0  0  0  0
  1  2  1  0  0  0
  1 22  1  0  0  0
  1 23  1  0  0  0
  1 24  1  0  0  0
  2  3  2  0  0  0
  2  7  1  0  0  0
  3  4  1  0  0  0
  3 25  1  0  0  0
  4  5  2  0  0  0
  4 26  1  0  0  0
  5  6  1  0  0  0
  5 27  1  0  0  0
  6  7  2  0  0  0
  6  8  1  0  0  0
  7 28  1  0  0  0
  8  9  1  0  0  0
  8 10  1  0  0  0
  8 11  1  0  0  0
  9 10  1  0  0  0
  9 29  1  0  0  0
  9 30  1  0  0  0
 10 31  1  0  0  0
 10 32  1  0  0  0
 11 12  1  0  0  0
 11 33  1  0  0  0
 12 13  2  0  0  0
 12 17  1  0  0  0
 13 14  1  0  0  0
 14 15  2  0  0  0
 14 34  1  0  0  0
 15 16  1  0  0  0
 15 18  1  0  0  0
 16 17  2  0  0  0
 16 35  1  0  0  0
 18 19  2  0  0  0
 18 20  1  0  0  0
 20 21  1  0  0  0
 20 36  1  0  0  0
 21 37  1  0  0  0
M  END
> <s_m_entry_id>
52365

> <s_m_entry_name>
dock_pv.87

> <s_m_Source_Path>
/home/csk/Desktop/cluster/DUD-E-result/hdac2

> <s_m_Source_File>
dock_pv.maegz

> <i_m_Source_File_Index>
87

> <chembl_id>
CHEMBL3656003

> <chembl_pref_name>
None

> <i_lp_mmshare_version>
53161

> <i_f3d_flags>
0

> <r_lp_tautomer_probability>
0.999999987636

> <s_lp_Force_Field>
OPLS_2005

> <r_lp_Energy>
21.060457

> <b_lp_Chiralities_Consistent>
1

> <s_lp_Variant>
CHEMBL1937_lig679-1

> <s_i_glide_gridfile>
glide-grid_3max

> <i_i_glide_lignum>
750

> <i_i_glide_rotatable_bonds>
6

> <r_i_docking_score>
-7.26331684158696

> <r_i_glide_ligand_efficiency>
-0.34587223055176

> <r_i_glide_ligand_efficiency_sa>
-0.954235257839718

> <r_i_glide_ligand_efficiency_ln>
-1.79584041216874

> <r_i_glide_gscore>
-7.26331684158696

> <r_i_glide_lipo>
-1.38675458056793

> <r_i_glide_hbond>
-0.32

> <r_i_glide_metal>
-2.3

> <r_i_glide_rewards>
-1.55742376084723

> <r_i_glide_evdw>
-21.5149440765381

> <r_i_glide_ecoul>
-10.3977251052856

> <r_i_glide_erotb>
1.12112470639453

> <r_i_glide_esite>
-0.18485723694657

> <r_i_glide_emodel>
-47.4488729204864

> <r_i_glide_energy>
-31.9126691818237

> <r_i_glide_einternal>
3.68635368347168

> <i_i_glide_confnum>
54

> <i_i_glide_posenum>
134

> <r_i_glide_eff_state_penalty>
0

> <s_user_duplicate_titles>
CHEMBL1937_lig679

> <s_m_subgroup_title>
dock_pv

> <s_m_subgroupid>
dock_pv

> <b_m_subgroup_collapsed>
1

$$$$
CHEMBL1937_lig724
                    3D
 Schrodinger Suite 2021-1.
 41 43  0  0  1  0            999 V2000
   65.7226   28.7795    0.2524 O   0  0  0  0  0  0
   67.0180   29.3150    0.3840 N   0  0  0  0  0  0
   67.3942   30.3074   -0.4365 C   0  0  0  0  0  0
   66.6084   30.8228   -1.2160 O   0  0  0  0  0  0
   68.7928   30.8481   -0.3891 C   0  0  0  0  0  0
   69.9100   30.0210   -0.4159 C   0  0  0  0  0  0
   71.1733   30.5033   -0.5144 N   0  0  0  0  0  0
   71.3240   31.8395   -0.6413 C   0  0  0  0  0  0
   72.6440   32.2179   -0.9259 N   0  0  0  0  0  0
   73.1867   33.5545   -1.2044 C   0  0  0  0  0  0
   74.5866   33.2719   -1.8279 C   0  0  0  0  0  0
   75.1988   34.5110   -2.5045 C   0  0  0  0  0  0
   74.3214   34.9434   -3.5392 O   0  0  0  0  0  0
   73.0595   35.3912   -3.0592 C   0  0  0  0  0  0
   72.3273   34.2463   -2.3194 C   0  0  0  0  0  0
   73.3442   34.3552    0.1178 C   0  0  0  0  0  0
   74.0711   33.7973    1.1842 C   0  0  0  0  0  0
   74.2994   34.5150    2.3588 C   0  0  0  0  0  0
   73.8051   35.8072    2.4938 C   0  0  0  0  0  0
   73.0767   36.3777    1.4561 C   0  0  0  0  0  0
   72.6180   37.6422    1.5840 F   0  0  0  0  0  0
   72.8361   35.6535    0.2867 C   0  0  0  0  0  0
   70.3030   32.7373   -0.5971 N   0  0  0  0  0  0
   69.0487   32.2247   -0.4594 C   0  0  0  0  0  0
   65.8678   27.9198   -0.1574 H   0  0  0  0  0  0
   67.5967   28.8526    1.0839 H   0  0  0  0  0  0
   69.8118   28.9450   -0.4161 H   0  0  0  0  0  0
   73.3231   31.4726   -0.8775 H   0  0  0  0  0  0
   75.2853   32.8769   -1.0889 H   0  0  0  0  0  0
   74.5118   32.4975   -2.5947 H   0  0  0  0  0  0
   75.3826   35.3110   -1.7845 H   0  0  0  0  0  0
   76.1632   34.2612   -2.9478 H   0  0  0  0  0  0
   73.1992   36.2725   -2.4336 H   0  0  0  0  0  0
   72.4641   35.7207   -3.9115 H   0  0  0  0  0  0
   72.0530   33.5060   -3.0730 H   0  0  0  0  0  0
   71.3840   34.6245   -1.9293 H   0  0  0  0  0  0
   74.4816   32.7995    1.1071 H   0  0  0  0  0  0
   74.8754   34.0728    3.1592 H   0  0  0  0  0  0
   73.9932   36.3682    3.3970 H   0  0  0  0  0  0
   72.2491   36.1201   -0.4836 H   0  0  0  0  0  0
   68.2382   32.9393   -0.4555 H   0  0  0  0  0  0
  1  2  1  0  0  0
  1 25  1  0  0  0
  2  3  1  0  0  0
  2 26  1  0  0  0
  3  4  2  0  0  0
  3  5  1  0  0  0
  5  6  2  0  0  0
  5 24  1  0  0  0
  6  7  1  0  0  0
  6 27  1  0  0  0
  7  8  2  0  0  0
  8  9  1  0  0  0
  8 23  1  0  0  0
  9 10  1  0  0  0
  9 28  1  0  0  0
 10 11  1  0  0  0
 10 15  1  0  0  0
 10 16  1  0  0  0
 11 12  1  0  0  0
 11 29  1  0  0  0
 11 30  1  0  0  0
 12 13  1  0  0  0
 12 31  1  0  0  0
 12 32  1  0  0  0
 13 14  1  0  0  0
 14 15  1  0  0  0
 14 33  1  0  0  0
 14 34  1  0  0  0
 15 35  1  0  0  0
 15 36  1  0  0  0
 16 17  2  0  0  0
 16 22  1  0  0  0
 17 18  1  0  0  0
 17 37  1  0  0  0
 18 19  2  0  0  0
 18 38  1  0  0  0
 19 20  1  0  0  0
 19 39  1  0  0  0
 20 21  1  0  0  0
 20 22  2  0  0  0
 22 40  1  0  0  0
 23 24  2  0  0  0
 24 41  1  0  0  0
M  END
> <s_m_entry_id>
52366

> <s_m_entry_name>
dock_pv.88

> <s_m_Source_Path>
/home/csk/Desktop/cluster/DUD-E-result/hdac2

> <s_m_Source_File>
dock_pv.maegz

> <i_m_Source_File_Index>
88

> <chembl_id>
CHEMBL3656018

> <chembl_pref_name>
None

> <i_lp_mmshare_version>
53161

> <i_f3d_flags>
0

> <r_lp_tautomer_probability>
0.999999987636

> <s_lp_Force_Field>
OPLS_2005

> <r_lp_Energy>
23.87699

> <b_lp_Chiralities_Consistent>
1

> <s_lp_Variant>
CHEMBL1937_lig724-1

> <s_i_glide_gridfile>
glide-grid_3max

> <i_i_glide_lignum>
796

> <i_i_glide_rotatable_bonds>
6

> <r_i_docking_score>
-7.26190041824856

> <r_i_glide_ligand_efficiency>
-0.30257918409369

> <r_i_glide_ligand_efficiency_sa>
-0.87278939556159

> <r_i_glide_ligand_efficiency_ln>
-1.73810599698372

> <r_i_glide_gscore>
-7.26190041824856

> <r_i_glide_lipo>
-1.21878557855591

> <r_i_glide_hbond>
-0.32

> <r_i_glide_metal>
-2.3

> <r_i_glide_rewards>
-1.26387396690857

> <r_i_glide_evdw>
-23.2669982910156

> <r_i_glide_ecoul>
-11.2466344833374

> <r_i_glide_erotb>
0.852613357162607

> <r_i_glide_esite>
-0.161509142895298

> <r_i_glide_emodel>
-43.6917605310332

> <r_i_glide_energy>
-34.513632774353

> <r_i_glide_einternal>
17.8086490631104

> <i_i_glide_confnum>
113

> <i_i_glide_posenum>
261

> <r_i_glide_eff_state_penalty>
0

> <s_user_duplicate_titles>
CHEMBL1937_lig724

> <s_m_subgroup_title>
dock_pv

> <s_m_subgroupid>
dock_pv

> <b_m_subgroup_collapsed>
1

$$$$
CHEMBL1937_lig734
                    3D
 Schrodinger Suite 2021-1.
 37 39  0  0  1  0            999 V2000
   65.7176   28.8689    0.2520 O   0  0  0  0  0  0
   67.0180   29.3917    0.3840 N   0  0  0  0  0  0
   67.4107   30.3712   -0.4497 C   0  0  0  0  0  0
   66.6180   30.8996   -1.2160 O   0  0  0  0  0  0
   68.8217   30.8900   -0.4160 C   0  0  0  0  0  0
   69.0996   32.2616   -0.5032 C   0  0  0  0  0  0
   70.3656   32.7596   -0.5689 N   0  0  0  0  0  0
   71.3799   31.8535   -0.5123 C   0  0  0  0  0  0
   72.7217   32.2620   -0.5373 N   0  0  0  0  0  0
   73.1816   33.6077   -0.8712 C   0  0  0  0  0  0
   73.0311   34.6648    0.2122 C   0  0  0  0  0  0
   74.3865   34.1022   -0.0865 C   0  0  0  0  0  0
   73.0420   33.9989   -2.3473 C   0  0  0  0  0  0
   71.9044   34.7243   -2.7269 C   0  0  0  0  0  0
   71.7263   35.1452   -4.0417 C   0  0  0  0  0  0
   72.6904   34.8437   -4.9971 C   0  0  0  0  0  0
   73.8208   34.1149   -4.6421 C   0  0  0  0  0  0
   74.0205   33.6821   -3.3222 C   0  0  0  0  0  0
   75.2923   32.8738   -3.0078 C   0  0  0  0  0  0
   75.0608   31.8698   -2.1640 F   0  0  0  0  0  0
   75.8180   32.3336   -4.1104 F   0  0  0  0  0  0
   76.2117   33.6796   -2.4793 F   0  0  0  0  0  0
   71.2061   30.5150   -0.4255 N   0  0  0  0  0  0
   69.9308   30.0491   -0.4159 C   0  0  0  0  0  0
   65.8562   28.0004   -0.1408 H   0  0  0  0  0  0
   67.5941   28.9150    1.0764 H   0  0  0  0  0  0
   68.3000   32.9874   -0.5394 H   0  0  0  0  0  0
   73.4262   31.5392   -0.4820 H   0  0  0  0  0  0
   72.8174   35.6944   -0.0757 H   0  0  0  0  0  0
   72.6180   34.4097    1.1840 H   0  0  0  0  0  0
   74.8529   33.4345    0.6413 H   0  0  0  0  0  0
   75.1102   34.7678   -0.5555 H   0  0  0  0  0  0
   71.1523   34.9722   -1.9936 H   0  0  0  0  0  0
   70.8495   35.7145   -4.3174 H   0  0  0  0  0  0
   72.5718   35.1798   -6.0160 H   0  0  0  0  0  0
   74.5535   33.9023   -5.4075 H   0  0  0  0  0  0
   69.8179   28.9745   -0.4160 H   0  0  0  0  0  0
  1  2  1  0  0  0
  1 25  1  0  0  0
  2  3  1  0  0  0
  2 26  1  0  0  0
  3  4  2  0  0  0
  3  5  1  0  0  0
  5  6  2  0  0  0
  5 24  1  0  0  0
  6  7  1  0  0  0
  6 27  1  0  0  0
  7  8  2  0  0  0
  8  9  1  0  0  0
  8 23  1  0  0  0
  9 10  1  0  0  0
  9 28  1  0  0  0
 10 11  1  0  0  0
 10 12  1  0  0  0
 10 13  1  0  0  0
 11 12  1  0  0  0
 11 29  1  0  0  0
 11 30  1  0  0  0
 12 31  1  0  0  0
 12 32  1  0  0  0
 13 14  2  0  0  0
 13 18  1  0  0  0
 14 15  1  0  0  0
 14 33  1  0  0  0
 15 16  2  0  0  0
 15 34  1  0  0  0
 16 17  1  0  0  0
 16 35  1  0  0  0
 17 18  2  0  0  0
 17 36  1  0  0  0
 18 19  1  0  0  0
 19 20  1  0  0  0
 19 21  1  0  0  0
 19 22  1  0  0  0
 23 24  2  0  0  0
 24 37  1  0  0  0
M  END
> <s_m_entry_id>
52367

> <s_m_entry_name>
dock_pv.89

> <s_m_Source_Path>
/home/csk/Desktop/cluster/DUD-E-result/hdac2

> <s_m_Source_File>
dock_pv.maegz

> <i_m_Source_File_Index>
89

> <chembl_id>
CHEMBL3655968

> <chembl_pref_name>
None

> <i_lp_mmshare_version>
53161

> <i_f3d_flags>
0

> <r_lp_tautomer_probability>
0.999999987636

> <s_lp_Force_Field>
OPLS_2005

> <r_lp_Energy>
24.010755

> <b_lp_Chiralities_Consistent>
1

> <s_lp_Variant>
CHEMBL1937_lig734-1

> <s_i_glide_gridfile>
glide-grid_3max

> <i_i_glide_lignum>
806

> <i_i_glide_rotatable_bonds>
7

> <r_i_docking_score>
-7.25546430294417

> <r_i_glide_ligand_efficiency>
-0.302311012622674

> <r_i_glide_ligand_efficiency_sa>
-0.872015855184726

> <r_i_glide_ligand_efficiency_ln>
-1.73656553925729

> <r_i_glide_gscore>
-7.25546430294417

> <r_i_glide_lipo>
-1.42350719603495

> <r_i_glide_hbond>
-0.32

> <r_i_glide_metal>
-2.3

> <r_i_glide_rewards>
-1.18441599539416

> <r_i_glide_evdw>
-23.38356590271

> <r_i_glide_ecoul>
-10.0153255462646

> <r_i_glide_erotb>
0.826224010368711

> <r_i_glide_esite>
-0.182287994808573

> <r_i_glide_emodel>
-47.9817702555817

> <r_i_glide_energy>
-33.3988914489746

> <r_i_glide_einternal>
4.04527568817139

> <i_i_glide_confnum>
43

> <i_i_glide_posenum>
251

> <r_i_glide_eff_state_penalty>
0

> <s_user_duplicate_titles>
CHEMBL1937_lig734

> <s_m_subgroup_title>
dock_pv

> <s_m_subgroupid>
dock_pv

> <b_m_subgroup_collapsed>
1

$$$$
CHEMBL1937_lig819
                    3D
 Schrodinger Suite 2021-1.
 48 49  0  0  1  0            999 V2000
   68.1744   30.0326   -0.6307 C   0  0  0  0  0  0
   68.6526   31.4980   -0.5603 C   0  0  0  0  0  0
   70.1248   31.6586   -0.9970 C   0  0  0  0  0  0
   71.1377   31.2646    0.1015 C   0  0  0  0  0  0
   72.5207   30.7907   -0.3963 C   0  0  0  0  0  0
   73.3948   31.8909   -1.0141 C   0  0  0  0  0  0
   74.5789   32.1131   -0.4150 N   0  0  0  0  0  0
   72.9964   32.4991   -2.0110 O   0  0  0  0  0  0
   75.4373   33.0845   -0.9530 O   0  0  0  0  0  0
   66.7472   29.8163   -0.1096 C   0  0  0  0  0  0
   66.6159   29.3046    1.1190 N   0  0  0  0  0  0
   65.7910   30.1146   -0.8160 O   0  0  0  0  0  0
   65.4471   29.0244    1.7169 N   0  0  0  0  0  0
   65.6592   28.4821    2.8480 C   0  0  0  0  0  0
   64.6216   28.1150    3.8088 C   0  0  0  0  0  0
   63.2679   28.1371    3.4563 C   0  0  0  0  0  0
   62.2936   28.1994    4.4447 C   0  0  0  0  0  0
   62.6518   28.2309    5.7979 C   0  0  0  0  0  0
   64.0042   28.1146    6.1464 C   0  0  0  0  0  0
   64.9892   27.9861    5.1612 C   0  0  0  0  0  0
   61.6104   28.3753    6.8559 C   0  0  0  0  0  0
   60.6053   29.3153    6.7556 C   0  0  0  0  0  0
   59.8181   29.7137    7.7650 N   0  0  0  0  0  0
   59.8184   28.9614    8.8792 C   0  0  0  0  0  0
   60.6179   27.8360    9.0033 C   0  0  0  0  0  0
   61.5317   27.5527    7.9841 C   0  0  0  0  0  0
   68.2128   29.7141   -1.6709 H   0  0  0  0  0  0
   68.8590   29.3780   -0.0893 H   0  0  0  0  0  0
   68.5219   31.9020    0.4435 H   0  0  0  0  0  0
   68.0271   32.1080   -1.2101 H   0  0  0  0  0  0
   70.3059   32.6955   -1.2846 H   0  0  0  0  0  0
   70.2991   31.0730   -1.9020 H   0  0  0  0  0  0
   70.7136   30.4756    0.7200 H   0  0  0  0  0  0
   71.2752   32.1049    0.7786 H   0  0  0  0  0  0
   72.4012   29.9965   -1.1282 H   0  0  0  0  0  0
   73.0536   30.3409    0.4434 H   0  0  0  0  0  0
   74.9700   31.6244    0.3910 H   0  0  0  0  0  0
   76.1721   32.5717   -1.2983 H   0  0  0  0  0  0
   67.4179   29.0273    1.6591 H   0  0  0  0  0  0
   66.6589   28.2411    3.2059 H   0  0  0  0  0  0
   62.9681   28.2075    2.4202 H   0  0  0  0  0  0
   61.2545   28.2450    4.1515 H   0  0  0  0  0  0
   64.2996   28.1194    7.1860 H   0  0  0  0  0  0
   66.0258   27.9570    5.4630 H   0  0  0  0  0  0
   60.3437   29.7141    5.8058 H   0  0  0  0  0  0
   59.1509   29.2710    9.6673 H   0  0  0  0  0  0
   60.6184   27.2946    9.9306 H   0  0  0  0  0  0
   62.2237   26.7338    8.1134 H   0  0  0  0  0  0
  1  2  1  0  0  0
  1 10  1  0  0  0
  1 27  1  0  0  0
  1 28  1  0  0  0
  2  3  1  0  0  0
  2 29  1  0  0  0
  2 30  1  0  0  0
  3  4  1  0  0  0
  3 31  1  0  0  0
  3 32  1  0  0  0
  4  5  1  0  0  0
  4 33  1  0  0  0
  4 34  1  0  0  0
  5  6  1  0  0  0
  5 35  1  0  0  0
  5 36  1  0  0  0
  6  7  1  0  0  0
  6  8  2  0  0  0
  7  9  1  0  0  0
  7 37  1  0  0  0
  9 38  1  0  0  0
 10 11  1  0  0  0
 10 12  2  0  0  0
 11 13  1  0  0  0
 11 39  1  0  0  0
 13 14  2  0  0  0
 14 15  1  0  0  0
 14 40  1  0  0  0
 15 16  2  0  0  0
 15 20  1  0  0  0
 16 17  1  0  0  0
 16 41  1  0  0  0
 17 18  2  0  0  0
 17 42  1  0  0  0
 18 19  1  0  0  0
 18 21  1  0  0  0
 19 20  2  0  0  0
 19 43  1  0  0  0
 20 44  1  0  0  0
 21 22  2  0  0  0
 21 26  1  0  0  0
 22 23  1  0  0  0
 22 45  1  0  0  0
 23 24  2  0  0  0
 24 25  1  0  0  0
 24 46  1  0  0  0
 25 26  2  0  0  0
 25 47  1  0  0  0
 26 48  1  0  0  0
M  END
> <s_m_entry_id>
52368

> <s_m_entry_name>
dock_pv.90

> <s_m_Source_Path>
/home/csk/Desktop/cluster/DUD-E-result/hdac2

> <s_m_Source_File>
dock_pv.maegz

> <i_m_Source_File_Index>
90

> <chembl_id>
CHEMBL3759794

> <chembl_pref_name>
None

> <i_lp_mmshare_version>
53161

> <i_f3d_flags>
0

> <r_lp_tautomer_probability>
1

> <s_lp_Force_Field>
OPLS_2005

> <r_lp_Energy>
20.392129

> <b_lp_Chiralities_Consistent>
1

> <s_lp_Variant>
CHEMBL1937_lig819-1

> <s_i_glide_gridfile>
glide-grid_3max

> <i_i_glide_lignum>
892

> <i_i_glide_rotatable_bonds>
12

> <r_i_docking_score>
-7.25070632423687

> <r_i_glide_ligand_efficiency>
-0.278873320162957

> <r_i_glide_ligand_efficiency_sa>
-0.826161113669231

> <r_i_glide_ligand_efficiency_ln>
-1.70280458873906

> <r_i_glide_gscore>
-7.25070632423687

> <r_i_glide_lipo>
-2.462211843075

> <r_i_glide_hbond>
-0.456

> <r_i_glide_metal>
-2.3

> <r_i_glide_rewards>
-1.34270678331099

> <r_i_glide_evdw>
-1.14851438999176

> <r_i_glide_ecoul>
-14.0227890014648

> <r_i_glide_erotb>
1.67347887203599

> <r_i_glide_esite>
-0.202422500167561

> <r_i_glide_emodel>
-18.6064245677387

> <r_i_glide_energy>
-15.1713033914566

> <r_i_glide_einternal>
9.79239559173584

> <i_i_glide_confnum>
95

> <i_i_glide_posenum>
324

> <r_i_glide_eff_state_penalty>
0

> <s_user_duplicate_titles>
CHEMBL1937_lig819

> <s_m_subgroup_title>
dock_pv

> <s_m_subgroupid>
dock_pv

> <b_m_subgroup_collapsed>
1

$$$$
CHEMBL1937_lig708
                    3D
 Schrodinger Suite 2021-1.
 30 31  0  0  1  0            999 V2000
   71.7023   35.9682   -4.0237 C   0  0  0  0  0  0
   72.1958   35.4191   -2.6977 C   0  0  0  0  0  0
   73.0501   36.1750   -1.8911 C   0  0  0  0  0  0
   73.5197   35.6556   -0.6850 C   0  0  0  0  0  0
   74.3438   36.3939    0.0912 F   0  0  0  0  0  0
   73.1448   34.3751   -0.2819 C   0  0  0  0  0  0
   72.2792   33.6195   -1.0725 C   0  0  0  0  0  0
   71.9399   32.3238   -0.6716 N   0  0  0  0  0  0
   70.6778   31.7313   -0.5830 C   0  0  0  0  0  0
   70.6773   30.3809   -0.5042 N   0  0  0  0  0  0
   69.4676   29.7742   -0.4160 C   0  0  0  0  0  0
   68.2713   30.4809   -0.3468 C   0  0  0  0  0  0
   68.3775   31.8732   -0.4195 C   0  0  0  0  0  0
   69.5663   32.5150   -0.5624 N   0  0  0  0  0  0
   66.9516   29.7767   -0.2412 C   0  0  0  0  0  0
   66.2180   29.7150   -1.2160 O   0  0  0  0  0  0
   66.6180   29.3150    0.9716 N   0  0  0  0  0  0
   65.3840   28.6645    1.1352 O   0  0  0  0  0  0
   71.8053   34.1441   -2.2794 C   0  0  0  0  0  0
   72.1290   36.9455   -4.2513 H   0  0  0  0  0  0
   71.9640   35.2875   -4.8342 H   0  0  0  0  0  0
   70.6177   36.0622   -4.0160 H   0  0  0  0  0  0
   73.3584   37.1644   -2.1952 H   0  0  0  0  0  0
   73.5270   33.9756    0.6465 H   0  0  0  0  0  0
   72.7104   31.6743   -0.6053 H   0  0  0  0  0  0
   69.4640   28.6969   -0.4167 H   0  0  0  0  0  0
   67.5024   32.5048   -0.4160 H   0  0  0  0  0  0
   67.2288   29.2574    1.7804 H   0  0  0  0  0  0
   65.6197   27.7336    1.1974 H   0  0  0  0  0  0
   71.1483   33.5509   -2.8977 H   0  0  0  0  0  0
  1  2  1  0  0  0
  1 20  1  0  0  0
  1 21  1  0  0  0
  1 22  1  0  0  0
  2  3  2  0  0  0
  2 19  1  0  0  0
  3  4  1  0  0  0
  3 23  1  0  0  0
  4  5  1  0  0  0
  4  6  2  0  0  0
  6  7  1  0  0  0
  6 24  1  0  0  0
  7  8  1  0  0  0
  7 19  2  0  0  0
  8  9  1  0  0  0
  8 25  1  0  0  0
  9 10  2  0  0  0
  9 14  1  0  0  0
 10 11  1  0  0  0
 11 12  2  0  0  0
 11 26  1  0  0  0
 12 13  1  0  0  0
 12 15  1  0  0  0
 13 14  2  0  0  0
 13 27  1  0  0  0
 15 16  2  0  0  0
 15 17  1  0  0  0
 17 18  1  0  0  0
 17 28  1  0  0  0
 18 29  1  0  0  0
 19 30  1  0  0  0
M  END
> <s_m_entry_id>
52369

> <s_m_entry_name>
dock_pv.91

> <s_m_Source_Path>
/home/csk/Desktop/cluster/DUD-E-result/hdac2

> <s_m_Source_File>
dock_pv.maegz

> <i_m_Source_File_Index>
91

> <chembl_id>
CHEMBL3655907

> <chembl_pref_name>
None

> <i_lp_mmshare_version>
53161

> <i_f3d_flags>
0

> <r_lp_tautomer_probability>
0.999999987636

> <s_lp_Force_Field>
OPLS_2005

> <r_lp_Energy>
13.817843

> <b_lp_Chiralities_Consistent>
1

> <s_lp_Variant>
CHEMBL1937_lig708-1

> <s_i_glide_gridfile>
glide-grid_3max

> <i_i_glide_lignum>
779

> <i_i_glide_rotatable_bonds>
5

> <r_i_docking_score>
-7.25050552527291

> <r_i_glide_ligand_efficiency>
-0.381605553961732

> <r_i_glide_ligand_efficiency_sa>
-1.01827688835352

> <r_i_glide_ligand_efficiency_ln>
-1.83815887723661

> <r_i_glide_gscore>
-7.25050552527291

> <r_i_glide_lipo>
-1.13090452439132

> <r_i_glide_hbond>
-0.220461944232287

> <r_i_glide_metal>
-2.3

> <r_i_glide_rewards>
-1.82105061560148

> <r_i_glide_evdw>
-21.3871326446533

> <r_i_glide_ecoul>
-10.4334182739258

> <r_i_glide_erotb>
1.03164782768447

> <r_i_glide_esite>
-0.175366895410752

> <r_i_glide_emodel>
-45.0248381421004

> <r_i_glide_energy>
-31.8205509185791

> <r_i_glide_einternal>
10.7158756256104

> <i_i_glide_confnum>
23

> <i_i_glide_posenum>
208

> <r_i_glide_eff_state_penalty>
0

> <s_user_duplicate_titles>
CHEMBL1937_lig708

> <s_m_subgroup_title>
dock_pv

> <s_m_subgroupid>
dock_pv

> <b_m_subgroup_collapsed>
1

$$$$
CHEMBL1937_lig707
                    3D
 Schrodinger Suite 2021-1.
 27 28  0  0  1  0            999 V2000
   65.3396   28.3976    1.1688 O   0  0  0  0  0  0
   66.6180   28.9150    0.8970 N   0  0  0  0  0  0
   66.7753   29.7513   -0.1365 C   0  0  0  0  0  0
   65.8180   30.1150   -0.8160 O   0  0  0  0  0  0
   68.1307   30.4112   -0.3548 C   0  0  0  0  0  0
   68.2555   31.8008   -0.4958 C   0  0  0  0  0  0
   69.4137   32.4323   -0.8160 N   0  0  0  0  0  0
   70.5063   31.6463   -0.9675 C   0  0  0  0  0  0
   71.7165   32.1961   -1.4053 N   0  0  0  0  0  0
   72.0168   33.3602   -2.1325 C   0  0  0  0  0  0
   73.3550   33.7526   -2.2026 C   0  0  0  0  0  0
   73.7248   34.8557   -2.9695 C   0  0  0  0  0  0
   72.7544   35.5624   -3.6771 C   0  0  0  0  0  0
   73.2076   36.9187   -4.6420 Cl  0  0  0  0  0  0
   71.4180   35.1797   -3.6160 C   0  0  0  0  0  0
   71.0484   34.0854   -2.8389 C   0  0  0  0  0  0
   70.5241   30.3109   -0.7653 N   0  0  0  0  0  0
   69.3390   29.7150   -0.4795 C   0  0  0  0  0  0
   65.4028   27.4750    0.9045 H   0  0  0  0  0  0
   67.3403   28.5937    1.5394 H   0  0  0  0  0  0
   67.4180   32.4650   -0.4160 H   0  0  0  0  0  0
   72.4685   31.5230   -1.3844 H   0  0  0  0  0  0
   74.1157   33.2012   -1.6680 H   0  0  0  0  0  0
   74.7615   35.1553   -3.0208 H   0  0  0  0  0  0
   70.6698   35.7299   -4.1692 H   0  0  0  0  0  0
   70.0096   33.8023   -2.8159 H   0  0  0  0  0  0
   69.4062   28.6418   -0.4160 H   0  0  0  0  0  0
  1  2  1  0  0  0
  1 19  1  0  0  0
  2  3  1  0  0  0
  2 20  1  0  0  0
  3  4  2  0  0  0
  3  5  1  0  0  0
  5  6  2  0  0  0
  5 18  1  0  0  0
  6  7  1  0  0  0
  6 21  1  0  0  0
  7  8  2  0  0  0
  8  9  1  0  0  0
  8 17  1  0  0  0
  9 10  1  0  0  0
  9 22  1  0  0  0
 10 11  2  0  0  0
 10 16  1  0  0  0
 11 12  1  0  0  0
 11 23  1  0  0  0
 12 13  2  0  0  0
 12 24  1  0  0  0
 13 14  1  0  0  0
 13 15  1  0  0  0
 15 16  2  0  0  0
 15 25  1  0  0  0
 16 26  1  0  0  0
 17 18  2  0  0  0
 18 27  1  0  0  0
M  END
> <s_m_entry_id>
52370

> <s_m_entry_name>
dock_pv.92

> <s_m_Source_Path>
/home/csk/Desktop/cluster/DUD-E-result/hdac2

> <s_m_Source_File>
dock_pv.maegz

> <i_m_Source_File_Index>
92

> <chembl_id>
CHEMBL3652230

> <chembl_pref_name>
None

> <i_lp_mmshare_version>
53161

> <i_f3d_flags>
0

> <r_lp_tautomer_probability>
0.999999987636

> <s_lp_Force_Field>
OPLS_2005

> <r_lp_Energy>
12.077752

> <b_lp_Chiralities_Consistent>
1

> <s_lp_Variant>
CHEMBL1937_lig707-1

> <s_i_glide_gridfile>
glide-grid_3max

> <i_i_glide_lignum>
778

> <i_i_glide_rotatable_bonds>
5

> <r_i_docking_score>
-7.23988822085115

> <r_i_glide_ligand_efficiency>
-0.402216012269508

> <r_i_glide_ligand_efficiency_sa>
-1.05410415175275

> <r_i_glide_ligand_efficiency_ln>
-1.86097593530916

> <r_i_glide_gscore>
-7.23988822085115

> <r_i_glide_lipo>
-0.972130996865772

> <r_i_glide_hbond>
-0.32

> <r_i_glide_metal>
-2.3

> <r_i_glide_rewards>
-1.82391014082475

> <r_i_glide_evdw>
-19.5992736816406

> <r_i_glide_ecoul>
-11.1780500411987

> <r_i_glide_erotb>
1.01537978790436

> <r_i_glide_esite>
-0.182555680803152

> <r_i_glide_emodel>
-45.8493984309252

> <r_i_glide_energy>
-30.7773237228394

> <r_i_glide_einternal>
6.46142244338989

> <i_i_glide_confnum>
4

> <i_i_glide_posenum>
318

> <r_i_glide_eff_state_penalty>
0

> <s_user_duplicate_titles>
CHEMBL1937_lig707

> <s_m_subgroup_title>
dock_pv

> <s_m_subgroupid>
dock_pv

> <b_m_subgroup_collapsed>
1

$$$$
CHEMBL1937_lig285
                    3D
 Schrodinger Suite 2021-1.
 48 48  0  0  1  0            999 V2000
   64.7855   28.1150    3.6087 C   0  0  0  0  0  0
   63.4184   28.2183    3.3489 C   0  0  0  0  0  0
   62.5350   28.3313    4.4070 C   0  0  0  0  0  0
   63.0180   28.3273    5.7249 C   0  0  0  0  0  0
   64.3665   28.1147    5.9840 C   0  0  0  0  0  0
   65.2489   27.9452    4.9229 C   0  0  0  0  0  0
   62.2335   28.5151    6.8263 O   0  0  0  0  0  0
   60.8766   28.8440    6.6452 C   0  0  0  0  0  0
   60.2693   29.1244    7.9325 C   0  0  0  0  0  0
   59.8180   29.3151    9.0407 C   0  0  0  0  0  0
   65.7608   28.4181    2.5810 C   0  0  0  0  0  0
   65.4936   28.9883    1.4813 N   0  0  0  0  0  0
   66.6180   29.1449    0.7839 N   0  0  0  0  0  0
   66.7443   29.8803   -0.3182 C   0  0  0  0  0  0
   68.1421   29.8843   -0.9471 C   0  0  0  0  0  0
   65.8180   30.5138   -0.8160 O   0  0  0  0  0  0
   68.9786   31.1587   -0.7048 C   0  0  0  0  0  0
   70.2236   30.9151    0.1766 C   0  0  0  0  0  0
   71.3443   31.9463   -0.0459 C   0  0  0  0  0  0
   72.1394   31.7168   -1.3528 C   0  0  0  0  0  0
   72.6512   33.0125   -2.0245 C   0  0  0  0  0  0
   71.5609   33.8270   -2.7426 C   0  0  0  0  0  0
   71.9817   34.6367   -3.7275 N   0  0  0  0  0  0
   70.3774   33.7189   -2.4159 O   0  0  0  0  0  0
   71.0181   35.3657   -4.4367 O   0  0  0  0  0  0
   63.0440   28.3175    2.3398 H   0  0  0  0  0  0
   61.4878   28.4538    4.1784 H   0  0  0  0  0  0
   64.7252   28.0875    7.0027 H   0  0  0  0  0  0
   66.2929   27.8456    5.1423 H   0  0  0  0  0  0
   60.3147   28.1150    6.0821 H   0  0  0  0  0  0
   60.7727   29.7150    6.0365 H   0  0  0  0  0  0
   59.4182   29.5510    9.9840 H   0  0  0  0  0  0
   66.7669   28.1162    2.8708 H   0  0  0  0  0  0
   67.4485   28.7195    1.1839 H   0  0  0  0  0  0
   68.7051   29.0175   -0.6004 H   0  0  0  0  0  0
   68.0333   29.7151   -2.0160 H   0  0  0  0  0  0
   69.3092   31.5180   -1.6754 H   0  0  0  0  0  0
   68.3839   31.9749   -0.2874 H   0  0  0  0  0  0
   69.9193   30.9151    1.2222 H   0  0  0  0  0  0
   70.6374   29.9252   -0.0163 H   0  0  0  0  0  0
   70.9122   32.9474   -0.0150 H   0  0  0  0  0  0
   72.0488   31.9081    0.7843 H   0  0  0  0  0  0
   72.9895   31.0703   -1.1263 H   0  0  0  0  0  0
   71.5492   31.1495   -2.0740 H   0  0  0  0  0  0
   73.1506   33.6463   -1.2906 H   0  0  0  0  0  0
   73.4073   32.7385   -2.7622 H   0  0  0  0  0  0
   72.9279   34.8093   -4.0374 H   0  0  0  0  0  0
   71.1077   36.2648   -4.1071 H   0  0  0  0  0  0
  1  6  1  0  0  0
  1  2  2  0  0  0
  1 11  1  0  0  0
  2  3  1  0  0  0
  2 26  1  0  0  0
  3  4  2  0  0  0
  3 27  1  0  0  0
  4  7  1  0  0  0
  4  5  1  0  0  0
  5  6  2  0  0  0
  5 28  1  0  0  0
  6 29  1  0  0  0
  7  8  1  0  0  0
  8  9  1  0  0  0
  8 30  1  0  0  0
  8 31  1  0  0  0
  9 10  3  0  0  0
 10 32  1  0  0  0
 11 12  2  0  0  0
 11 33  1  0  0  0
 12 13  1  0  0  0
 13 14  1  0  0  0
 13 34  1  0  0  0
 14 15  1  0  0  0
 14 16  2  0  0  0
 15 17  1  0  0  0
 15 35  1  0  0  0
 15 36  1  0  0  0
 17 18  1  0  0  0
 17 37  1  0  0  0
 17 38  1  0  0  0
 18 19  1  0  0  0
 18 39  1  0  0  0
 18 40  1  0  0  0
 19 20  1  0  0  0
 19 41  1  0  0  0
 19 42  1  0  0  0
 20 21  1  0  0  0
 20 43  1  0  0  0
 20 44  1  0  0  0
 21 22  1  0  0  0
 21 45  1  0  0  0
 21 46  1  0  0  0
 22 23  1  0  0  0
 22 24  2  0  0  0
 23 25  1  0  0  0
 23 47  1  0  0  0
 25 48  1  0  0  0
M  END
> <s_m_entry_id>
52371

> <s_m_entry_name>
dock_pv.93

> <s_m_Source_Path>
/home/csk/Desktop/cluster/DUD-E-result/hdac2

> <s_m_Source_File>
dock_pv.maegz

> <i_m_Source_File_Index>
93

> <chembl_id>
CHEMBL1771484

> <chembl_pref_name>
None

> <i_lp_mmshare_version>
53161

> <i_f3d_flags>
0

> <r_lp_tautomer_probability>
1

> <s_lp_Force_Field>
OPLS_2005

> <r_lp_Energy>
23.747859

> <b_lp_Chiralities_Consistent>
1

> <s_lp_Variant>
CHEMBL1937_lig285-1

> <s_i_glide_gridfile>
glide-grid_3max

> <i_i_glide_lignum>
331

> <i_i_glide_rotatable_bonds>
15

> <r_i_docking_score>
-7.22361105867394

> <r_i_glide_ligand_efficiency>
-0.288944442346958

> <r_i_glide_ligand_efficiency_sa>
-0.844878673874009

> <r_i_glide_ligand_efficiency_ln>
-1.71221229506076

> <r_i_glide_gscore>
-7.22361105867394

> <r_i_glide_lipo>
-2.38890408808474

> <r_i_glide_hbond>
-0.347386052821228

> <r_i_glide_metal>
-2.3

> <r_i_glide_rewards>
-1.38618089230893

> <r_i_glide_evdw>
-17.557596206665

> <r_i_glide_ecoul>
-13.1840486526489

> <r_i_glide_erotb>
2.22965351675093

> <r_i_glide_esite>
-0.175306433979373

> <r_i_glide_emodel>
-28.639514540055

> <r_i_glide_energy>
-30.741644859314

> <r_i_glide_einternal>
12.9849424362183

> <i_i_glide_confnum>
47

> <i_i_glide_posenum>
248

> <r_i_glide_eff_state_penalty>
0

> <s_user_duplicate_titles>
CHEMBL1937_lig285

> <s_m_subgroup_title>
dock_pv

> <s_m_subgroupid>
dock_pv

> <b_m_subgroup_collapsed>
1

$$$$
CHEMBL1937_lig765
                    3D
 Schrodinger Suite 2021-1.
 37 39  0  0  1  0            999 V2000
   75.3260   32.6447   -2.8111 C   0  0  0  0  0  0
   74.1363   33.4223   -3.3589 C   0  0  0  0  0  0
   74.1008   33.7150   -4.7258 C   0  0  0  0  0  0
   73.0180   34.3966   -5.2745 C   0  0  0  0  0  0
   71.9517   34.7840   -4.4657 C   0  0  0  0  0  0
   71.9796   34.5034   -3.1020 C   0  0  0  0  0  0
   73.0709   33.8342   -2.5344 C   0  0  0  0  0  0
   73.0911   33.6123   -1.0241 C   0  0  0  0  0  0
   72.7996   34.7908   -0.1138 C   0  0  0  0  0  0
   74.1939   34.2378   -0.1881 C   0  0  0  0  0  0
   72.6661   32.2859   -0.5870 N   0  0  0  0  0  0
   71.3336   31.8538   -0.5603 C   0  0  0  0  0  0
   70.3087   32.7449   -0.6471 N   0  0  0  0  0  0
   69.0516   32.2326   -0.5581 C   0  0  0  0  0  0
   68.7930   30.8601   -0.4341 C   0  0  0  0  0  0
   69.9119   30.0329   -0.4160 C   0  0  0  0  0  0
   71.1807   30.5150   -0.4354 N   0  0  0  0  0  0
   67.3893   30.3265   -0.4554 C   0  0  0  0  0  0
   66.5888   30.8489   -1.2160 O   0  0  0  0  0  0
   67.0180   29.3458    0.3840 N   0  0  0  0  0  0
   65.6855   28.8952    0.3570 O   0  0  0  0  0  0
   75.8721   32.1296   -3.6021 H   0  0  0  0  0  0
   76.0124   33.3077   -2.2848 H   0  0  0  0  0  0
   74.9973   31.8745   -2.1133 H   0  0  0  0  0  0
   74.9168   33.4168   -5.3683 H   0  0  0  0  0  0
   73.0137   34.6257   -6.3300 H   0  0  0  0  0  0
   71.1119   35.3142   -4.8919 H   0  0  0  0  0  0
   71.1563   34.8212   -2.4788 H   0  0  0  0  0  0
   72.6101   35.7705   -0.5528 H   0  0  0  0  0  0
   72.2180   34.6260    0.7840 H   0  0  0  0  0  0
   74.5870   33.6881    0.6694 H   0  0  0  0  0  0
   74.9607   34.8357   -0.6810 H   0  0  0  0  0  0
   73.3795   31.5761   -0.5043 H   0  0  0  0  0  0
   68.2429   32.9474   -0.6125 H   0  0  0  0  0  0
   69.8116   28.9569   -0.4160 H   0  0  0  0  0  0
   67.5987   28.9027    1.0947 H   0  0  0  0  0  0
   65.3162   29.2170    1.1840 H   0  0  0  0  0  0
  1  2  1  0  0  0
  1 22  1  0  0  0
  1 23  1  0  0  0
  1 24  1  0  0  0
  2  3  2  0  0  0
  2  7  1  0  0  0
  3  4  1  0  0  0
  3 25  1  0  0  0
  4  5  2  0  0  0
  4 26  1  0  0  0
  5  6  1  0  0  0
  5 27  1  0  0  0
  6  7  2  0  0  0
  6 28  1  0  0  0
  7  8  1  0  0  0
  8  9  1  0  0  0
  8 10  1  0  0  0
  8 11  1  0  0  0
  9 10  1  0  0  0
  9 29  1  0  0  0
  9 30  1  0  0  0
 10 31  1  0  0  0
 10 32  1  0  0  0
 11 12  1  0  0  0
 11 33  1  0  0  0
 12 13  2  0  0  0
 12 17  1  0  0  0
 13 14  1  0  0  0
 14 15  2  0  0  0
 14 34  1  0  0  0
 15 16  1  0  0  0
 15 18  1  0  0  0
 16 17  2  0  0  0
 16 35  1  0  0  0
 18 19  2  0  0  0
 18 20  1  0  0  0
 20 21  1  0  0  0
 20 36  1  0  0  0
 21 37  1  0  0  0
M  END
> <s_m_entry_id>
52372

> <s_m_entry_name>
dock_pv.94

> <s_m_Source_Path>
/home/csk/Desktop/cluster/DUD-E-result/hdac2

> <s_m_Source_File>
dock_pv.maegz

> <i_m_Source_File_Index>
94

> <chembl_id>
CHEMBL3655996

> <chembl_pref_name>
None

> <i_lp_mmshare_version>
53161

> <i_f3d_flags>
0

> <r_lp_tautomer_probability>
0.999999987636

> <s_lp_Force_Field>
OPLS_2005

> <r_lp_Energy>
22.39886

> <b_lp_Chiralities_Consistent>
1

> <s_lp_Variant>
CHEMBL1937_lig765-1

> <s_i_glide_gridfile>
glide-grid_3max

> <i_i_glide_lignum>
838

> <i_i_glide_rotatable_bonds>
6

> <r_i_docking_score>
-7.21881297623549

> <r_i_glide_ligand_efficiency>
-0.343752998868357

> <r_i_glide_ligand_efficiency_sa>
-0.948388458318958

> <r_i_glide_ligand_efficiency_ln>
-1.78483692138912

> <r_i_glide_gscore>
-7.21881297623549

> <r_i_glide_lipo>
-1.49166317921746

> <r_i_glide_hbond>
-0.32

> <r_i_glide_metal>
-2.3

> <r_i_glide_rewards>
-1.60349977283199

> <r_i_glide_evdw>
-21.0967540740967

> <r_i_glide_ecoul>
-9.27241611480713

> <r_i_glide_erotb>
1.12112470639453

> <r_i_glide_esite>
-0.179074609654663

> <r_i_glide_emodel>
-44.7106688371254

> <r_i_glide_energy>
-30.3691701889038

> <r_i_glide_einternal>
3.81974768638611

> <i_i_glide_confnum>
60

> <i_i_glide_posenum>
274

> <r_i_glide_eff_state_penalty>
0

> <s_user_duplicate_titles>
CHEMBL1937_lig765

> <s_m_subgroup_title>
dock_pv

> <s_m_subgroupid>
dock_pv

> <b_m_subgroup_collapsed>
1

$$$$
CHEMBL1937_lig380
                    3D
 Schrodinger Suite 2021-1.
 51 54  0  0  1  0            999 V2000
   74.1220   33.7981    0.4980 C   0  0  0  0  0  0
   74.3675   32.5150    0.0440 N   0  0  0  0  0  0
   73.6994   31.8560   -1.0757 C   0  0  0  0  0  0
   72.2212   31.5340   -0.8632 C   0  0  0  0  0  0
   71.3834   31.4878   -1.9666 C   0  0  0  0  0  0
   70.0645   31.0810   -1.8231 C   0  0  0  0  0  0
   69.4962   30.8770   -0.5711 C   0  0  0  0  0  0
   70.3430   30.9150    0.5364 C   0  0  0  0  0  0
   71.7018   31.2039    0.3840 C   0  0  0  0  0  0
   68.0021   30.6704   -0.4524 C   0  0  0  0  0  0
   67.2107   31.3150   -1.1335 O   0  0  0  0  0  0
   67.5740   29.7235    0.3840 N   0  0  0  0  0  0
   66.2610   29.3150    0.6849 C   0  0  0  0  0  0
   65.8976   29.1703    2.0238 C   0  0  0  0  0  0
   64.2437   28.1416    0.0411 C   0  0  0  0  0  0
   65.4096   28.8319   -0.2996 C   0  0  0  0  0  0
   63.9048   27.9749    1.3838 C   0  0  0  0  0  0
   64.7177   28.5150    2.3775 C   0  0  0  0  0  0
   65.8179   28.9150   -1.6160 N   0  0  0  0  0  0
   75.5019   34.6927    1.1840 S   0  0  0  0  0  0
   74.3957   36.0498    1.6087 C   0  0  1  0  0  0
   73.0615   35.7477    0.9018 C   0  0  0  0  0  0
   73.0180   34.4092    0.3675 N   0  0  0  0  0  0
   74.2908   36.2253    3.1269 C   0  0  0  0  0  0
   74.6554   37.4425    3.7122 C   0  0  0  0  0  0
   74.6180   37.5927    5.0964 C   0  0  0  0  0  0
   74.2180   36.5247    5.8958 C   0  0  0  0  0  0
   73.8338   35.3149    5.3225 C   0  0  0  0  0  0
   73.8656   35.1668    3.9392 C   0  0  0  0  0  0
   75.0819   31.9637    0.5101 H   0  0  0  0  0  0
   74.2176   30.9150   -1.2614 H   0  0  0  0  0  0
   73.8322   32.4655   -1.9711 H   0  0  0  0  0  0
   71.7731   31.7150   -2.9423 H   0  0  0  0  0  0
   69.4723   30.9150   -2.7033 H   0  0  0  0  0  0
   69.9592   30.7365    1.5302 H   0  0  0  0  0  0
   72.3510   31.2027    1.2455 H   0  0  0  0  0  0
   68.2727   29.2883    0.9871 H   0  0  0  0  0  0
   66.5749   29.5149    2.7840 H   0  0  0  0  0  0
   63.6130   27.7150   -0.7264 H   0  0  0  0  0  0
   63.0180   27.4223    1.6543 H   0  0  0  0  0  0
   64.4617   28.3785    3.4179 H   0  0  0  0  0  0
   66.8295   28.7743   -1.6410 H   0  0  0  0  0  0
   65.3782   28.1135   -2.0896 H   0  0  0  0  0  0
   74.8425   36.9463    1.1759 H   0  0  0  0  0  0
   72.9048   36.4399    0.0729 H   0  0  0  0  0  0
   72.2176   35.8768    1.5801 H   0  0  0  0  0  0
   74.9885   38.2677    3.0998 H   0  0  0  0  0  0
   74.9124   38.5279    5.5499 H   0  0  0  0  0  0
   74.2079   36.6358    6.9703 H   0  0  0  0  0  0
   73.5285   34.4893    5.9479 H   0  0  0  0  0  0
   73.5937   34.2184    3.4992 H   0  0  0  0  0  0
  1  2  1  0  0  0
  1 20  1  0  0  0
  1 23  2  0  0  0
  2  3  1  0  0  0
  2 30  1  0  0  0
  3  4  1  0  0  0
  3 31  1  0  0  0
  3 32  1  0  0  0
  4  5  2  0  0  0
  4  9  1  0  0  0
  5  6  1  0  0  0
  5 33  1  0  0  0
  6  7  2  0  0  0
  6 34  1  0  0  0
  7  8  1  0  0  0
  7 10  1  0  0  0
  8  9  2  0  0  0
  8 35  1  0  0  0
  9 36  1  0  0  0
 10 11  2  0  0  0
 10 12  1  0  0  0
 12 13  1  0  0  0
 12 37  1  0  0  0
 13 14  2  0  0  0
 13 16  1  0  0  0
 14 18  1  0  0  0
 14 38  1  0  0  0
 15 17  1  0  0  0
 15 16  2  0  0  0
 15 39  1  0  0  0
 16 19  1  0  0  0
 17 18  2  0  0  0
 17 40  1  0  0  0
 18 41  1  0  0  0
 19 42  1  0  0  0
 19 43  1  0  0  0
 20 21  1  0  0  0
 21 22  1  0  0  0
 21 24  1  0  0  0
 21 44  1  0  0  0
 22 23  1  0  0  0
 22 45  1  0  0  0
 22 46  1  0  0  0
 24 25  2  0  0  0
 24 29  1  0  0  0
 25 26  1  0  0  0
 25 47  1  0  0  0
 26 27  2  0  0  0
 26 48  1  0  0  0
 27 28  1  0  0  0
 27 49  1  0  0  0
 28 29  2  0  0  0
 28 50  1  0  0  0
 29 51  1  0  0  0
M  END
> <s_m_entry_id>
52373

> <s_m_entry_name>
dock_pv.95

> <s_m_Source_Path>
/home/csk/Desktop/cluster/DUD-E-result/hdac2

> <s_m_Source_File>
dock_pv.maegz

> <i_m_Source_File_Index>
95

> <chembl_id>
CHEMBL2407722

> <chembl_pref_name>
None

> <i_lp_mmshare_version>
53161

> <i_f3d_flags>
0

> <r_lp_tautomer_probability>
1

> <s_lp_Force_Field>
OPLS_2005

> <r_lp_Energy>
31.347389

> <b_lp_Chiralities_Consistent>
1

> <s_lp_Variant>
CHEMBL1937_lig380-1

> <s_i_glide_gridfile>
glide-grid_3max

> <i_i_glide_lignum>
425

> <i_i_glide_rotatable_bonds>
7

> <r_i_docking_score>
-7.21821501800138

> <r_i_glide_ligand_efficiency>
-0.248903966137979

> <r_i_glide_ligand_efficiency_sa>
-0.764711842287315

> <r_i_glide_ligand_efficiency_ln>
-1.65278820098242

> <r_i_glide_gscore>
-7.21821501800138

> <r_i_glide_lipo>
-2.3339633499654

> <r_i_glide_hbond>
-0.814529385560395

> <r_i_glide_metal>
0

> <r_i_glide_rewards>
-0.906340542882183

> <r_i_glide_evdw>
-7.66315889358521

> <r_i_glide_ecoul>
-22.9991512298584

> <r_i_glide_erotb>
0.847884996566888

> <r_i_glide_esite>
-0.178236107002267

> <r_i_glide_emodel>
-33.1069889866096

> <r_i_glide_energy>
-30.6623101234436

> <r_i_glide_einternal>
10.0171823501587

> <i_i_glide_confnum>
111

> <i_i_glide_posenum>
24

> <r_i_glide_eff_state_penalty>
0

> <s_user_duplicate_titles>
CHEMBL1937_lig380

> <s_m_subgroup_title>
dock_pv

> <s_m_subgroupid>
dock_pv

> <b_m_subgroup_collapsed>
1

$$$$
CHEMBL1937_lig823
                    3D
 Schrodinger Suite 2021-1.
 43 43  0  0  1  0            999 V2000
   67.8006   29.7150   -0.4817 C   0  0  0  0  0  0
   68.3889   31.1328   -0.3255 C   0  0  0  0  0  0
   69.6407   31.3620   -1.2160 C   0  0  0  0  0  0
   70.9376   30.6105   -0.8310 C   0  0  0  0  0  0
   71.7518   31.1827    0.3466 C   0  0  0  0  0  0
   72.5098   32.4945    0.0608 C   0  0  0  0  0  0
   73.8180   32.5150    0.3840 N   0  0  0  0  0  0
   71.9094   33.4594   -0.4160 O   0  0  0  0  0  0
   74.5403   33.7044    0.2023 O   0  0  0  0  0  0
   66.3385   29.4958   -0.0283 C   0  0  0  0  0  0
   66.1338   28.9241    1.1832 N   0  0  0  0  0  0
   65.4347   29.8047   -0.8160 O   0  0  0  0  0  0
   64.9050   28.8001    1.7665 N   0  0  0  0  0  0
   64.9497   28.2411    2.9177 C   0  0  0  0  0  0
   63.8178   28.1150    3.8704 C   0  0  0  0  0  0
   64.0163   28.1150    5.2669 C   0  0  0  0  0  0
   62.9753   28.3409    6.1600 C   0  0  0  0  0  0
   61.6843   28.5150    5.6864 C   0  0  0  0  0  0
   61.4410   28.3595    4.3182 C   0  0  0  0  0  0
   62.4983   28.1150    3.4389 C   0  0  0  0  0  0
   65.7561   28.1150    5.9840 Br  0  0  0  0  0  0
   60.2180   28.5150    3.7242 O   0  0  0  0  0  0
   59.1003   28.9636    4.4509 C   0  0  0  0  0  0
   67.8156   29.4645   -1.5405 H   0  0  0  0  0  0
   68.4812   29.0080   -0.0160 H   0  0  0  0  0  0
   68.6356   31.3211    0.7206 H   0  0  0  0  0  0
   67.6382   31.8758   -0.5988 H   0  0  0  0  0  0
   69.8272   32.4314   -1.2998 H   0  0  0  0  0  0
   69.4180   31.0378   -2.2301 H   0  0  0  0  0  0
   71.5932   30.5674   -1.6999 H   0  0  0  0  0  0
   70.6882   29.5713   -0.6189 H   0  0  0  0  0  0
   72.4859   30.4398    0.6592 H   0  0  0  0  0  0
   71.0785   31.3150    1.1840 H   0  0  0  0  0  0
   74.3723   31.7732    0.8074 H   0  0  0  0  0  0
   74.7422   33.9843    1.1002 H   0  0  0  0  0  0
   66.9193   28.6229    1.7452 H   0  0  0  0  0  0
   65.8800   27.8515    3.3195 H   0  0  0  0  0  0
   63.1815   28.4074    7.2133 H   0  0  0  0  0  0
   60.8839   28.6873    6.3899 H   0  0  0  0  0  0
   62.2879   28.0602    2.3840 H   0  0  0  0  0  0
   58.4298   29.4132    3.7199 H   0  0  0  0  0  0
   58.6180   28.1150    4.9138 H   0  0  0  0  0  0
   59.3115   29.7150    5.2087 H   0  0  0  0  0  0
  1  2  1  0  0  0
  1 10  1  0  0  0
  1 24  1  0  0  0
  1 25  1  0  0  0
  2  3  1  0  0  0
  2 26  1  0  0  0
  2 27  1  0  0  0
  3  4  1  0  0  0
  3 28  1  0  0  0
  3 29  1  0  0  0
  4  5  1  0  0  0
  4 30  1  0  0  0
  4 31  1  0  0  0
  5  6  1  0  0  0
  5 32  1  0  0  0
  5 33  1  0  0  0
  6  7  1  0  0  0
  6  8  2  0  0  0
  7  9  1  0  0  0
  7 34  1  0  0  0
  9 35  1  0  0  0
 10 11  1  0  0  0
 10 12  2  0  0  0
 11 13  1  0  0  0
 11 36  1  0  0  0
 13 14  2  0  0  0
 14 15  1  0  0  0
 14 37  1  0  0  0
 15 16  2  0  0  0
 15 20  1  0  0  0
 16 17  1  0  0  0
 16 21  1  0  0  0
 17 18  2  0  0  0
 17 38  1  0  0  0
 18 19  1  0  0  0
 18 39  1  0  0  0
 19 20  2  0  0  0
 19 22  1  0  0  0
 20 40  1  0  0  0
 22 23  1  0  0  0
 23 41  1  0  0  0
 23 42  1  0  0  0
 23 43  1  0  0  0
M  END
> <s_m_entry_id>
52374

> <s_m_entry_name>
dock_pv.96

> <s_m_Source_Path>
/home/csk/Desktop/cluster/DUD-E-result/hdac2

> <s_m_Source_File>
dock_pv.maegz

> <i_m_Source_File_Index>
96

> <chembl_id>
CHEMBL3759059

> <chembl_pref_name>
None

> <i_lp_mmshare_version>
53161

> <i_f3d_flags>
0

> <r_lp_tautomer_probability>
1

> <s_lp_Force_Field>
OPLS_2005

> <r_lp_Energy>
18.394733

> <b_lp_Chiralities_Consistent>
1

> <s_lp_Variant>
CHEMBL1937_lig823-1

> <s_i_glide_gridfile>
glide-grid_3max

> <i_i_glide_lignum>
896

> <i_i_glide_rotatable_bonds>
12

> <r_i_docking_score>
-7.21723009650164

> <r_i_glide_ligand_efficiency>
-0.313792612891376

> <r_i_glide_ligand_efficiency_sa>
-0.892384449390439

> <r_i_glide_ligand_efficiency_ln>
-1.74519167955845

> <r_i_glide_gscore>
-7.21723009650164

> <r_i_glide_lipo>
-1.7665931627619

> <r_i_glide_hbond>
-0.609253979488374

> <r_i_glide_metal>
-2.3

> <r_i_glide_rewards>
-1.18301872143115

> <r_i_glide_evdw>
-11.35573387146

> <r_i_glide_ecoul>
-13.1309947967529

> <r_i_glide_erotb>
1.30453620194099

> <r_i_glide_esite>
-0.125464521675273

> <r_i_glide_emodel>
-27.2973242741114

> <r_i_glide_energy>
-24.4867286682129

> <r_i_glide_einternal>
8.18499565124512

> <i_i_glide_confnum>
307

> <i_i_glide_posenum>
100

> <r_i_glide_eff_state_penalty>
0

> <s_user_duplicate_titles>
CHEMBL1937_lig823

> <s_m_subgroup_title>
dock_pv

> <s_m_subgroupid>
dock_pv

> <b_m_subgroup_collapsed>
1

$$$$
CHEMBL1937_lig641
                    3D
 Schrodinger Suite 2021-1.
 30 31  0  0  1  0            999 V2000
   60.7250   29.8498    8.2011 C   0  0  0  0  0  0
   61.2172   29.2502    6.8967 C   0  0  0  0  0  0
   60.3030   28.9150    5.8990 C   0  0  0  0  0  0
   60.7542   28.3802    4.6876 C   0  0  0  0  0  0
   62.1217   28.2031    4.4481 C   0  0  0  0  0  0
   62.5313   27.7150    3.1906 N   0  0  0  0  0  0
   63.6713   27.9348    2.4030 C   0  0  0  0  0  0
   64.7848   28.5150    2.9180 N   0  0  0  0  0  0
   65.7266   28.9363    2.0313 C   0  0  0  0  0  0
   65.5634   28.8149    0.6437 C   0  0  0  0  0  0
   64.4265   28.1149    0.2291 C   0  0  0  0  0  0
   63.4951   27.6526    1.0927 N   0  0  0  0  0  0
   66.5029   29.4040   -0.3756 C   0  0  0  0  0  0
   66.2180   29.3150   -1.5669 O   0  0  0  0  0  0
   67.6182   30.0139    0.0642 N   0  0  0  0  0  0
   68.5308   30.5150   -0.8721 O   0  0  0  0  0  0
   63.0180   28.5150    5.4693 C   0  0  0  0  0  0
   62.5800   29.0554    6.6725 C   0  0  0  0  0  0
   59.8261   30.4457    8.0402 H   0  0  0  0  0  0
   60.4927   29.0606    8.9169 H   0  0  0  0  0  0
   61.4699   30.5153    8.6390 H   0  0  0  0  0  0
   59.2425   29.0545    6.0432 H   0  0  0  0  0  0
   60.0317   28.1156    3.9295 H   0  0  0  0  0  0
   61.7867   27.2776    2.6694 H   0  0  0  0  0  0
   66.5943   29.4126    2.4619 H   0  0  0  0  0  0
   64.2180   27.9246   -0.8160 H   0  0  0  0  0  0
   67.9737   30.0327    1.0120 H   0  0  0  0  0  0
   69.2319   29.8558   -0.8848 H   0  0  0  0  0  0
   64.0725   28.3313    5.3446 H   0  0  0  0  0  0
   63.3199   29.3348    7.4056 H   0  0  0  0  0  0
  1  2  1  0  0  0
  1 19  1  0  0  0
  1 20  1  0  0  0
  1 21  1  0  0  0
  2  3  2  0  0  0
  2 18  1  0  0  0
  3  4  1  0  0  0
  3 22  1  0  0  0
  4  5  2  0  0  0
  4 23  1  0  0  0
  5  6  1  0  0  0
  5 17  1  0  0  0
  6  7  1  0  0  0
  6 24  1  0  0  0
  7  8  2  0  0  0
  7 12  1  0  0  0
  8  9  1  0  0  0
  9 10  2  0  0  0
  9 25  1  0  0  0
 10 11  1  0  0  0
 10 13  1  0  0  0
 11 12  2  0  0  0
 11 26  1  0  0  0
 13 14  2  0  0  0
 13 15  1  0  0  0
 15 16  1  0  0  0
 15 27  1  0  0  0
 16 28  1  0  0  0
 17 18  2  0  0  0
 17 29  1  0  0  0
 18 30  1  0  0  0
M  END
> <s_m_entry_id>
52375

> <s_m_entry_name>
dock_pv.97

> <s_m_Source_Path>
/home/csk/Desktop/cluster/DUD-E-result/hdac2

> <s_m_Source_File>
dock_pv.maegz

> <i_m_Source_File_Index>
97

> <chembl_id>
CHEMBL3652228

> <chembl_pref_name>
None

> <i_lp_mmshare_version>
53161

> <i_f3d_flags>
0

> <r_lp_tautomer_probability>
0.999999987636

> <s_lp_Force_Field>
OPLS_2005

> <r_lp_Energy>
12.597958

> <b_lp_Chiralities_Consistent>
1

> <s_lp_Variant>
CHEMBL1937_lig641-1

> <s_i_glide_gridfile>
glide-grid_3max

> <i_i_glide_lignum>
712

> <i_i_glide_rotatable_bonds>
5

> <r_i_docking_score>
-7.20294701935392

> <r_i_glide_ligand_efficiency>
-0.40016372329744

> <r_i_glide_ligand_efficiency_sa>
-1.04872563309595

> <r_i_glide_ligand_efficiency_ln>
-1.85148038994842

> <r_i_glide_gscore>
-7.20294701935392

> <r_i_glide_lipo>
-1.42181779375786

> <r_i_glide_hbond>
-0.174835906024025

> <r_i_glide_metal>
-2.3

> <r_i_glide_rewards>
-2.11870904341611

> <r_i_glide_evdw>
-15.6377716064453

> <r_i_glide_ecoul>
-9.23869323730469

> <r_i_glide_erotb>
1.16552003387775

> <r_i_glide_esite>
-0.185411744115699

> <r_i_glide_emodel>
-35.1735742079109

> <r_i_glide_energy>
-24.87646484375

> <r_i_glide_einternal>
4.96498203277588

> <i_i_glide_confnum>
28

> <i_i_glide_posenum>
322

> <r_i_glide_eff_state_penalty>
0

> <s_user_duplicate_titles>
CHEMBL1937_lig641

> <s_m_subgroup_title>
dock_pv

> <s_m_subgroupid>
dock_pv

> <b_m_subgroup_collapsed>
1

$$$$
CHEMBL1937_lig709
                    3D
 Schrodinger Suite 2021-1.
 40 42  0  0  1  0            999 V2000
   65.7230   28.7771    0.2573 O   0  0  0  0  0  0
   67.0180   29.3150    0.3840 N   0  0  0  0  0  0
   67.3907   30.3045   -0.4388 C   0  0  0  0  0  0
   66.6010   30.8175   -1.2160 O   0  0  0  0  0  0
   68.7879   30.8485   -0.3947 C   0  0  0  0  0  0
   69.9114   30.0278   -0.4160 C   0  0  0  0  0  0
   71.1717   30.5150   -0.5426 N   0  0  0  0  0  0
   71.3078   31.8539   -0.6908 C   0  0  0  0  0  0
   72.6127   32.2634   -1.0059 N   0  0  0  0  0  0
   73.0826   33.6373   -1.2469 C   0  0  0  0  0  0
   74.4095   33.5593   -2.0342 C   0  0  0  0  0  0
   74.5450   34.8995   -2.7625 C   0  0  0  0  0  0
   73.1108   35.2943   -3.1272 C   0  0  0  0  0  0
   72.1971   34.3746   -2.2963 C   0  0  0  0  0  0
   73.3033   34.3873    0.0958 C   0  0  0  0  0  0
   73.8879   33.7170    1.1840 C   0  0  0  0  0  0
   74.1727   34.3846    2.3747 C   0  0  0  0  0  0
   73.8842   35.7386    2.5033 C   0  0  0  0  0  0
   73.3216   36.4292    1.4339 C   0  0  0  0  0  0
   73.0180   38.1214    1.5840 Cl  0  0  0  0  0  0
   73.0301   35.7590    0.2428 C   0  0  0  0  0  0
   70.2798   32.7435   -0.6423 N   0  0  0  0  0  0
   69.0328   32.2249   -0.4822 C   0  0  0  0  0  0
   65.8683   27.9171   -0.1518 H   0  0  0  0  0  0
   67.5991   28.8549    1.0834 H   0  0  0  0  0  0
   69.8180   28.9513   -0.4160 H   0  0  0  0  0  0
   73.3233   31.5485   -0.9474 H   0  0  0  0  0  0
   75.2701   33.3509   -1.3959 H   0  0  0  0  0  0
   74.3754   32.7612   -2.7798 H   0  0  0  0  0  0
   74.9834   35.6445   -2.0960 H   0  0  0  0  0  0
   75.1914   34.8281   -3.6384 H   0  0  0  0  0  0
   72.9290   36.3477   -2.9095 H   0  0  0  0  0  0
   72.9268   35.1553   -4.1938 H   0  0  0  0  0  0
   71.7417   33.6524   -2.9771 H   0  0  0  0  0  0
   71.3679   34.9197   -1.8463 H   0  0  0  0  0  0
   74.1472   32.6694    1.1124 H   0  0  0  0  0  0
   74.6181   33.8429    3.1966 H   0  0  0  0  0  0
   74.1149   36.2522    3.4252 H   0  0  0  0  0  0
   72.6180   36.3307   -0.5724 H   0  0  0  0  0  0
   68.2180   32.9346   -0.4816 H   0  0  0  0  0  0
  1  2  1  0  0  0
  1 24  1  0  0  0
  2  3  1  0  0  0
  2 25  1  0  0  0
  3  4  2  0  0  0
  3  5  1  0  0  0
  5  6  2  0  0  0
  5 23  1  0  0  0
  6  7  1  0  0  0
  6 26  1  0  0  0
  7  8  2  0  0  0
  8  9  1  0  0  0
  8 22  1  0  0  0
  9 10  1  0  0  0
  9 27  1  0  0  0
 10 11  1  0  0  0
 10 14  1  0  0  0
 10 15  1  0  0  0
 11 12  1  0  0  0
 11 28  1  0  0  0
 11 29  1  0  0  0
 12 13  1  0  0  0
 12 30  1  0  0  0
 12 31  1  0  0  0
 13 14  1  0  0  0
 13 32  1  0  0  0
 13 33  1  0  0  0
 14 34  1  0  0  0
 14 35  1  0  0  0
 15 16  2  0  0  0
 15 21  1  0  0  0
 16 17  1  0  0  0
 16 36  1  0  0  0
 17 18  2  0  0  0
 17 37  1  0  0  0
 18 19  1  0  0  0
 18 38  1  0  0  0
 19 20  1  0  0  0
 19 21  2  0  0  0
 21 39  1  0  0  0
 22 23  2  0  0  0
 23 40  1  0  0  0
M  END
> <s_m_entry_id>
52376

> <s_m_entry_name>
dock_pv.98

> <s_m_Source_Path>
/home/csk/Desktop/cluster/DUD-E-result/hdac2

> <s_m_Source_File>
dock_pv.maegz

> <i_m_Source_File_Index>
98

> <chembl_id>
CHEMBL3656022

> <chembl_pref_name>
None

> <i_lp_mmshare_version>
53161

> <i_f3d_flags>
0

> <r_lp_tautomer_probability>
0.999999987636

> <s_lp_Force_Field>
OPLS_2005

> <r_lp_Energy>
33.559447

> <b_lp_Chiralities_Consistent>
1

> <s_lp_Variant>
CHEMBL1937_lig709-1

> <s_i_glide_gridfile>
glide-grid_3max

> <i_i_glide_lignum>
780

> <i_i_glide_rotatable_bonds>
6

> <r_i_docking_score>
-7.15092234394687

> <r_i_glide_ligand_efficiency>
-0.310909667128125

> <r_i_glide_ligand_efficiency_sa>
-0.884185735138196

> <r_i_glide_ligand_efficiency_ln>
-1.72915786374525

> <r_i_glide_gscore>
-7.15092234394687

> <r_i_glide_lipo>
-1.18771034534059

> <r_i_glide_hbond>
-0.32

> <r_i_glide_metal>
-2.3

> <r_i_glide_rewards>
-1.21021978685367

> <r_i_glide_evdw>
-23.7436962127686

> <r_i_glide_ecoul>
-10.9328060150146

> <r_i_glide_erotb>
0.850552932939038

> <r_i_glide_esite>
-0.156439431801025

> <r_i_glide_emodel>
-47.0155596221287

> <r_i_glide_energy>
-34.6765022277832

> <r_i_glide_einternal>
9.73165607452393

> <i_i_glide_confnum>
193

> <i_i_glide_posenum>
271

> <r_i_glide_eff_state_penalty>
0

> <s_user_duplicate_titles>
CHEMBL1937_lig709

> <s_m_subgroup_title>
dock_pv

> <s_m_subgroupid>
dock_pv

> <b_m_subgroup_collapsed>
1

$$$$
CHEMBL1937_lig738
                    3D
 Schrodinger Suite 2021-1.
 27 28  0  0  1  0            999 V2000
   65.3781   28.6772    1.1405 O   0  0  0  0  0  0
   66.6180   29.3150    0.9727 N   0  0  0  0  0  0
   66.9510   29.7753   -0.2408 C   0  0  0  0  0  0
   66.2180   29.7150   -1.2160 O   0  0  0  0  0  0
   68.2823   30.4548   -0.3514 C   0  0  0  0  0  0
   69.4552   29.7150   -0.4322 C   0  0  0  0  0  0
   70.6788   30.2849   -0.5459 N   0  0  0  0  0  0
   70.7216   31.6350   -0.6124 C   0  0  0  0  0  0
   72.0050   32.1743   -0.7345 N   0  0  0  0  0  0
   72.4154   33.5085   -0.8557 C   0  0  0  0  0  0
   73.3211   33.9906    0.0935 C   0  0  0  0  0  0
   73.8113   35.2928    0.0081 C   0  0  0  0  0  0
   73.4180   36.1162   -1.0449 C   0  0  0  0  0  0
   72.5423   35.6338   -2.0171 C   0  0  0  0  0  0
   72.0466   34.3301   -1.9386 C   0  0  0  0  0  0
   71.0180   33.7717   -3.2160 Cl  0  0  0  0  0  0
   69.6358   32.4534   -0.5541 N   0  0  0  0  0  0
   68.4276   31.8452   -0.4169 C   0  0  0  0  0  0
   65.6044   27.7438    1.1999 H   0  0  0  0  0  0
   67.2307   29.2527    1.7799 H   0  0  0  0  0  0
   69.4184   28.6378   -0.4160 H   0  0  0  0  0  0
   72.7477   31.4946   -0.6574 H   0  0  0  0  0  0
   73.6455   33.3568    0.9080 H   0  0  0  0  0  0
   74.5036   35.6573    0.7533 H   0  0  0  0  0  0
   73.8018   37.1236   -1.1155 H   0  0  0  0  0  0
   72.2574   36.2704   -2.8424 H   0  0  0  0  0  0
   67.5713   32.5021   -0.4160 H   0  0  0  0  0  0
  1  2  1  0  0  0
  1 19  1  0  0  0
  2  3  1  0  0  0
  2 20  1  0  0  0
  3  4  2  0  0  0
  3  5  1  0  0  0
  5  6  2  0  0  0
  5 18  1  0  0  0
  6  7  1  0  0  0
  6 21  1  0  0  0
  7  8  2  0  0  0
  8  9  1  0  0  0
  8 17  1  0  0  0
  9 10  1  0  0  0
  9 22  1  0  0  0
 10 11  2  0  0  0
 10 15  1  0  0  0
 11 12  1  0  0  0
 11 23  1  0  0  0
 12 13  2  0  0  0
 12 24  1  0  0  0
 13 14  1  0  0  0
 13 25  1  0  0  0
 14 15  2  0  0  0
 14 26  1  0  0  0
 15 16  1  0  0  0
 17 18  2  0  0  0
 18 27  1  0  0  0
M  END
> <s_m_entry_id>
52377

> <s_m_entry_name>
dock_pv.99

> <s_m_Source_Path>
/home/csk/Desktop/cluster/DUD-E-result/hdac2

> <s_m_Source_File>
dock_pv.maegz

> <i_m_Source_File_Index>
99

> <chembl_id>
CHEMBL3652231

> <chembl_pref_name>
None

> <i_lp_mmshare_version>
53161

> <i_f3d_flags>
0

> <r_lp_tautomer_probability>
0.999999987636

> <s_lp_Force_Field>
OPLS_2005

> <r_lp_Energy>
12.100419

> <b_lp_Chiralities_Consistent>
1

> <s_lp_Variant>
CHEMBL1937_lig738-1

> <s_i_glide_gridfile>
glide-grid_3max

> <i_i_glide_lignum>
810

> <i_i_glide_rotatable_bonds>
5

> <r_i_docking_score>
-7.13131098464536

> <r_i_glide_ligand_efficiency>
-0.396183943591409

> <r_i_glide_ligand_efficiency_sa>
-1.03829565969057

> <r_i_glide_ligand_efficiency_ln>
-1.83306671661164

> <r_i_glide_gscore>
-7.13131098464536

> <r_i_glide_lipo>
-0.859490361989153

> <r_i_glide_hbond>
-0.222546276505558

> <r_i_glide_metal>
-2.3

> <r_i_glide_rewards>
-1.74618815269161

> <r_i_glide_evdw>
-20.7927856445312

> <r_i_glide_ecoul>
-12.0229434967041

> <r_i_glide_erotb>
1.01537978790436

> <r_i_glide_esite>
-0.175385174631218

> <r_i_glide_emodel>
-47.452070908369

> <r_i_glide_energy>
-32.8157291412354

> <r_i_glide_einternal>
9.24211025238037

> <i_i_glide_confnum>
3

> <i_i_glide_posenum>
127

> <r_i_glide_eff_state_penalty>
0

> <s_user_duplicate_titles>
CHEMBL1937_lig738

> <s_m_subgroup_title>
dock_pv

> <s_m_subgroupid>
dock_pv

> <b_m_subgroup_collapsed>
1

$$$$
CHEMBL1937_lig742
                    3D
 Schrodinger Suite 2021-1.
 29 30  0  0  1  0            999 V2000
   65.3777   28.6774    1.1399 O   0  0  0  0  0  0
   66.6180   29.3150    0.9721 N   0  0  0  0  0  0
   66.9520   29.7757   -0.2415 C   0  0  0  0  0  0
   66.2180   29.7149   -1.2160 O   0  0  0  0  0  0
   68.2846   30.4557   -0.3493 C   0  0  0  0  0  0
   69.4575   29.7151   -0.4162 C   0  0  0  0  0  0
   70.6853   30.2807   -0.4973 N   0  0  0  0  0  0
   70.7357   31.6305   -0.5564 C   0  0  0  0  0  0
   72.0290   32.1596   -0.6532 N   0  0  0  0  0  0
   72.2994   33.5939   -0.7252 C   0  0  0  0  0  0
   72.1078   34.2134   -2.1116 C   0  0  0  0  0  0
   72.2191   35.6020   -2.2431 C   0  0  0  0  0  0
   72.0658   36.1789   -3.5052 C   0  0  0  0  0  0
   71.8204   35.4506   -4.6227 N   0  0  0  0  0  0
   71.7259   34.1050   -4.4902 C   0  0  0  0  0  0
   71.8565   33.4517   -3.2638 C   0  0  0  0  0  0
   69.6470   32.4500   -0.5351 N   0  0  0  0  0  0
   68.4342   31.8456   -0.4162 C   0  0  0  0  0  0
   65.6047   27.7444    1.2043 H   0  0  0  0  0  0
   67.2305   29.2532    1.7797 H   0  0  0  0  0  0
   69.4178   28.6375   -0.4163 H   0  0  0  0  0  0
   72.8082   31.5235   -0.5538 H   0  0  0  0  0  0
   71.6599   34.1150   -0.0153 H   0  0  0  0  0  0
   73.3265   33.7687   -0.4021 H   0  0  0  0  0  0
   72.4236   36.2222   -1.3830 H   0  0  0  0  0  0
   72.1378   37.2486   -3.6375 H   0  0  0  0  0  0
   71.5383   33.5511   -5.3988 H   0  0  0  0  0  0
   71.7711   32.3773   -3.2121 H   0  0  0  0  0  0
   67.5792   32.5044   -0.4161 H   0  0  0  0  0  0
  1  2  1  0  0  0
  1 19  1  0  0  0
  2  3  1  0  0  0
  2 20  1  0  0  0
  3  4  2  0  0  0
  3  5  1  0  0  0
  5  6  2  0  0  0
  5 18  1  0  0  0
  6  7  1  0  0  0
  6 21  1  0  0  0
  7  8  2  0  0  0
  8  9  1  0  0  0
  8 17  1  0  0  0
  9 10  1  0  0  0
  9 22  1  0  0  0
 10 11  1  0  0  0
 10 23  1  0  0  0
 10 24  1  0  0  0
 11 12  2  0  0  0
 11 16  1  0  0  0
 12 13  1  0  0  0
 12 25  1  0  0  0
 13 14  2  0  0  0
 13 26  1  0  0  0
 14 15  1  0  0  0
 15 16  2  0  0  0
 15 27  1  0  0  0
 16 28  1  0  0  0
 17 18  2  0  0  0
 18 29  1  0  0  0
M  END
> <s_m_entry_id>
52378

> <s_m_entry_name>
dock_pv.100

> <s_m_Source_Path>
/home/csk/Desktop/cluster/DUD-E-result/hdac2

> <s_m_Source_File>
dock_pv.maegz

> <i_m_Source_File_Index>
100

> <chembl_id>
CHEMBL3655946

> <chembl_pref_name>
None

> <i_lp_mmshare_version>
53161

> <i_f3d_flags>
0

> <r_lp_tautomer_probability>
0.999999987636

> <s_lp_Force_Field>
OPLS_2005

> <r_lp_Energy>
10.224474

> <b_lp_Chiralities_Consistent>
1

> <s_lp_Variant>
CHEMBL1937_lig742-1

> <s_i_glide_gridfile>
glide-grid_3max

> <i_i_glide_lignum>
814

> <i_i_glide_rotatable_bonds>
6

> <r_i_docking_score>
-7.11848055692479

> <r_i_glide_ligand_efficiency>
-0.395471142051377

> <r_i_glide_ligand_efficiency_sa>
-1.03642759119056

> <r_i_glide_ligand_efficiency_ln>
-1.82976872132506

> <r_i_glide_gscore>
-7.11848055692479

> <r_i_glide_lipo>
-1.2282936793315

> <r_i_glide_hbond>
-0.22230505549137

> <r_i_glide_metal>
-2.3

> <r_i_glide_rewards>
-1.95614803324308

> <r_i_glide_evdw>
-22.816837310791

> <r_i_glide_ecoul>
-10.2826404571533

> <r_i_glide_erotb>
1.44687738997874

> <r_i_glide_esite>
-0.175373244725031

> <r_i_glide_emodel>
-47.5061359108548

> <r_i_glide_energy>
-33.0994777679443

> <r_i_glide_einternal>
8.17326736450195

> <i_i_glide_confnum>
42

> <i_i_glide_posenum>
128

> <r_i_glide_eff_state_penalty>
0

> <s_user_duplicate_titles>
CHEMBL1937_lig742

> <s_m_subgroup_title>
dock_pv

> <s_m_subgroupid>
dock_pv

> <b_m_subgroup_collapsed>
1

$$$$
CHEMBL1937_lig762
                    3D
 Schrodinger Suite 2021-1.
 34 36  0  0  1  0            999 V2000
   65.7188   28.7850    0.2694 O   0  0  0  0  0  0
   67.0180   29.3150    0.3840 N   0  0  0  0  0  0
   67.3895   30.3021   -0.4458 C   0  0  0  0  0  0
   66.5964   30.8202   -1.2160 O   0  0  0  0  0  0
   68.7927   30.8335   -0.4160 C   0  0  0  0  0  0
   69.0608   32.2065   -0.5183 C   0  0  0  0  0  0
   70.3212   32.7078   -0.6409 N   0  0  0  0  0  0
   71.3362   31.8006   -0.6256 C   0  0  0  0  0  0
   72.6671   32.1917   -0.8161 N   0  0  0  0  0  0
   73.1027   33.5669   -1.0303 C   0  0  0  0  0  0
   74.0910   33.7393   -2.1664 C   0  0  0  0  0  0
   72.6745   34.2121   -2.3432 C   0  0  0  0  0  0
   73.3329   34.3804    0.2463 C   0  0  0  0  0  0
   74.1022   33.8332    1.2798 C   0  0  0  0  0  0
   74.3096   34.5489    2.4560 C   0  0  0  0  0  0
   73.7621   35.8204    2.5974 C   0  0  0  0  0  0
   73.9508   36.5138    3.7426 F   0  0  0  0  0  0
   73.0180   36.3855    1.5660 C   0  0  0  0  0  0
   72.8032   35.6669    0.3928 C   0  0  0  0  0  0
   71.1728   30.4664   -0.4919 N   0  0  0  0  0  0
   69.9032   29.9967   -0.4160 C   0  0  0  0  0  0
   65.8556   27.9227   -0.1379 H   0  0  0  0  0  0
   67.6017   28.8536    1.0805 H   0  0  0  0  0  0
   68.2565   32.9278   -0.5423 H   0  0  0  0  0  0
   73.3752   31.4729   -0.7745 H   0  0  0  0  0  0
   74.8809   34.4843   -2.0638 H   0  0  0  0  0  0
   74.4234   32.8619   -2.7226 H   0  0  0  0  0  0
   72.0181   33.6538   -3.0114 H   0  0  0  0  0  0
   72.5030   35.2854   -2.4102 H   0  0  0  0  0  0
   74.5353   32.8464    1.1839 H   0  0  0  0  0  0
   74.8982   34.1150    3.2524 H   0  0  0  0  0  0
   72.6066   37.3768    1.6799 H   0  0  0  0  0  0
   72.2180   36.1150   -0.3931 H   0  0  0  0  0  0
   69.7949   28.9215   -0.4160 H   0  0  0  0  0  0
  1  2  1  0  0  0
  1 22  1  0  0  0
  2  3  1  0  0  0
  2 23  1  0  0  0
  3  4  2  0  0  0
  3  5  1  0  0  0
  5  6  2  0  0  0
  5 21  1  0  0  0
  6  7  1  0  0  0
  6 24  1  0  0  0
  7  8  2  0  0  0
  8  9  1  0  0  0
  8 20  1  0  0  0
  9 10  1  0  0  0
  9 25  1  0  0  0
 10 11  1  0  0  0
 10 12  1  0  0  0
 10 13  1  0  0  0
 11 12  1  0  0  0
 11 26  1  0  0  0
 11 27  1  0  0  0
 12 28  1  0  0  0
 12 29  1  0  0  0
 13 14  2  0  0  0
 13 19  1  0  0  0
 14 15  1  0  0  0
 14 30  1  0  0  0
 15 16  2  0  0  0
 15 31  1  0  0  0
 16 17  1  0  0  0
 16 18  1  0  0  0
 18 19  2  0  0  0
 18 32  1  0  0  0
 19 33  1  0  0  0
 20 21  2  0  0  0
 21 34  1  0  0  0
M  END
> <s_m_entry_id>
52379

> <s_m_entry_name>
dock_pv.101

> <s_m_Source_Path>
/home/csk/Desktop/cluster/DUD-E-result/hdac2

> <s_m_Source_File>
dock_pv.maegz

> <i_m_Source_File_Index>
101

> <chembl_id>
CHEMBL3655958

> <chembl_pref_name>
None

> <i_lp_mmshare_version>
53161

> <i_f3d_flags>
0

> <r_lp_tautomer_probability>
0.999999987636

> <s_lp_Force_Field>
OPLS_2005

> <r_lp_Energy>
20.546839

> <b_lp_Chiralities_Consistent>
1

> <s_lp_Variant>
CHEMBL1937_lig762-1

> <s_i_glide_gridfile>
glide-grid_3max

> <i_i_glide_lignum>
835

> <i_i_glide_rotatable_bonds>
6

> <r_i_docking_score>
-7.07140624430647

> <r_i_glide_ligand_efficiency>
-0.336733630681261

> <r_i_glide_ligand_efficiency_sa>
-0.929022553744311

> <r_i_glide_ligand_efficiency_ln>
-1.74839090478302

> <r_i_glide_gscore>
-7.07140624430647

> <r_i_glide_lipo>
-1.17609569894784

> <r_i_glide_hbond>
-0.32

> <r_i_glide_metal>
-2.3

> <r_i_glide_rewards>
-1.52174732435221

> <r_i_glide_evdw>
-20.8946857452393

> <r_i_glide_ecoul>
-10.902382850647

> <r_i_glide_erotb>
1.09442087716645

> <r_i_glide_esite>
-0.16789238331386

> <r_i_glide_emodel>
-45.1225204916065

> <r_i_glide_energy>
-31.7970685958862

> <r_i_glide_einternal>
7.09555721282959

> <i_i_glide_confnum>
66

> <i_i_glide_posenum>
233

> <r_i_glide_eff_state_penalty>
0

> <s_user_duplicate_titles>
CHEMBL1937_lig762

> <s_m_subgroup_title>
dock_pv

> <s_m_subgroupid>
dock_pv

> <b_m_subgroup_collapsed>
1

$$$$
CHEMBL1937_lig659
                    3D
 Schrodinger Suite 2021-1.
 38 39  0  0  1  0            999 V2000
   71.4180   33.8559   -4.8160 O   0  0  0  0  0  0
   71.7905   34.8283   -3.8625 C   0  0  0  0  0  0
   73.2082   34.6439   -3.3183 C   0  0  0  0  0  0
   74.1354   35.6653   -3.5488 C   0  0  0  0  0  0
   75.4300   35.5765   -3.0497 C   0  0  0  0  0  0
   75.8089   34.4706   -2.2971 C   0  0  0  0  0  0
   74.9039   33.4353   -2.0431 C   0  0  0  0  0  0
   75.3692   32.2733   -1.1647 C   0  0  0  0  0  0
   74.5639   32.1150   -0.0160 O   0  0  0  0  0  0
   73.5957   33.5064   -2.5733 C   0  0  0  0  0  0
   72.6130   32.3538   -2.3565 C   0  0  0  0  0  0
   71.6323   32.6958   -1.3413 N   0  0  0  0  0  0
   70.5245   31.8773   -1.1074 C   0  0  0  0  0  0
   69.8151   32.1951   -0.0160 N   0  0  0  0  0  0
   68.7555   31.4116    0.3031 C   0  0  0  0  0  0
   68.3166   30.3674   -0.4927 C   0  0  0  0  0  0
   69.1171   30.1150   -1.6160 C   0  0  0  0  0  0
   70.2180   30.8539   -1.9365 N   0  0  0  0  0  0
   66.9751   29.7150   -0.2682 C   0  0  0  0  0  0
   66.2178   29.6316   -1.2160 O   0  0  0  0  0  0
   66.6180   29.3150    0.9671 N   0  0  0  0  0  0
   65.3582   28.7227    1.1592 O   0  0  0  0  0  0
   70.9528   34.2969   -5.5336 H   0  0  0  0  0  0
   71.0797   34.8028   -3.0360 H   0  0  0  0  0  0
   71.6739   35.8133   -4.3179 H   0  0  0  0  0  0
   73.8560   36.5403   -4.1178 H   0  0  0  0  0  0
   76.1371   36.3719   -3.2349 H   0  0  0  0  0  0
   76.8125   34.4288   -1.8987 H   0  0  0  0  0  0
   75.3514   31.3520   -1.7480 H   0  0  0  0  0  0
   76.4000   32.4196   -0.8379 H   0  0  0  0  0  0
   74.9883   31.4893    0.6008 H   0  0  0  0  0  0
   73.1159   31.4324   -2.0645 H   0  0  0  0  0  0
   72.1032   32.1150   -3.2825 H   0  0  0  0  0  0
   71.9176   33.3260   -0.6061 H   0  0  0  0  0  0
   68.2180   31.7084    1.1840 H   0  0  0  0  0  0
   68.8684   29.3383   -2.3230 H   0  0  0  0  0  0
   67.2324   29.2505    1.7726 H   0  0  0  0  0  0
   65.5556   27.7849    1.2469 H   0  0  0  0  0  0
  1  2  1  0  0  0
  1 23  1  0  0  0
  2  3  1  0  0  0
  2 24  1  0  0  0
  2 25  1  0  0  0
  3  4  2  0  0  0
  3 10  1  0  0  0
  4  5  1  0  0  0
  4 26  1  0  0  0
  5  6  2  0  0  0
  5 27  1  0  0  0
  6  7  1  0  0  0
  6 28  1  0  0  0
  7  8  1  0  0  0
  7 10  2  0  0  0
  8  9  1  0  0  0
  8 29  1  0  0  0
  8 30  1  0  0  0
  9 31  1  0  0  0
 10 11  1  0  0  0
 11 12  1  0  0  0
 11 32  1  0  0  0
 11 33  1  0  0  0
 12 13  1  0  0  0
 12 34  1  0  0  0
 13 14  2  0  0  0
 13 18  1  0  0  0
 14 15  1  0  0  0
 15 16  2  0  0  0
 15 35  1  0  0  0
 16 17  1  0  0  0
 16 19  1  0  0  0
 17 18  2  0  0  0
 17 36  1  0  0  0
 19 20  2  0  0  0
 19 21  1  0  0  0
 21 22  1  0  0  0
 21 37  1  0  0  0
 22 38  1  0  0  0
M  END
> <s_m_entry_id>
52380

> <s_m_entry_name>
dock_pv.102

> <s_m_Source_Path>
/home/csk/Desktop/cluster/DUD-E-result/hdac2

> <s_m_Source_File>
dock_pv.maegz

> <i_m_Source_File_Index>
102

> <chembl_id>
CHEMBL3655934

> <chembl_pref_name>
None

> <i_lp_mmshare_version>
53161

> <i_f3d_flags>
0

> <r_lp_tautomer_probability>
0.999999987636

> <s_lp_Force_Field>
OPLS_2005

> <r_lp_Energy>
12.953352

> <b_lp_Chiralities_Consistent>
1

> <s_lp_Variant>
CHEMBL1937_lig659-1

> <s_i_glide_gridfile>
glide-grid_3max

> <i_i_glide_lignum>
730

> <i_i_glide_rotatable_bonds>
10

> <r_i_docking_score>
-7.0660420290241

> <r_i_glide_ligand_efficiency>
-0.321183728592004

> <r_i_glide_ligand_efficiency_sa>
-0.89996943895406

> <r_i_glide_ligand_efficiency_ln>
-1.72719841203887

> <r_i_glide_gscore>
-7.0660420290241

> <r_i_glide_lipo>
-0.65587888650264

> <r_i_glide_hbond>
-0.597634795710424

> <r_i_glide_metal>
-2.3

> <r_i_glide_rewards>
-1.44254539915394

> <r_i_glide_evdw>
-13.9893732070923

> <r_i_glide_ecoul>
-17.2612533569336

> <r_i_glide_erotb>
1.393976103919

> <r_i_glide_esite>
-0.175302387681439

> <r_i_glide_emodel>
-43.7117068307558

> <r_i_glide_energy>
-31.2506265640259

> <r_i_glide_einternal>
6.37131261825562

> <i_i_glide_confnum>
96

> <i_i_glide_posenum>
380

> <r_i_glide_eff_state_penalty>
0

> <s_user_duplicate_titles>
CHEMBL1937_lig659

> <s_m_subgroup_title>
dock_pv

> <s_m_subgroupid>
dock_pv

> <b_m_subgroup_collapsed>
1

$$$$
CHEMBL1937_lig272
                    3D
 Schrodinger Suite 2021-1.
 57 58  0  0  1  0            999 V2000
   73.5463   38.5807   -3.2466 C   0  0  0  0  0  0
   73.0292   38.7875   -4.5250 C   0  0  0  0  0  0
   72.2185   37.8204   -5.1178 C   0  0  0  0  0  0
   71.9158   36.6445   -4.4322 C   0  0  0  0  0  0
   73.2567   37.3986   -2.5465 C   0  0  0  0  0  0
   73.7437   37.1046   -1.2840 O   0  0  0  0  0  0
   74.5893   38.0089   -0.5924 C   0  0  0  0  0  0
   75.1172   37.3115    0.6773 C   0  0  0  0  0  0
   72.4318   36.4328   -3.1467 C   0  0  0  0  0  0
   74.0530   36.9460    1.7412 C   0  0  0  0  0  0
   72.1669   35.2935   -2.3723 N   0  0  0  0  0  0
   71.7360   34.0678   -2.7171 C   0  0  0  0  0  0
   71.6750   33.0251   -1.5709 C   0  0  2  0  0  0
   71.4199   33.7290   -3.8607 O   0  0  0  0  0  0
   70.2439   32.4737   -1.3840 C   0  0  0  0  0  0
   72.0979   33.5713   -0.3092 O   0  0  0  0  0  0
   73.5057   33.6633   -0.0778 C   0  0  0  0  0  0
   73.7702   34.3879    1.2554 C   0  0  0  0  0  0
   73.0976   35.7802    1.3936 C   0  0  0  0  0  0
   70.1800   31.1721   -0.5515 C   0  0  0  0  0  0
   69.4173   30.0450   -1.2724 C   0  0  0  0  0  0
   67.8786   30.1575   -1.2454 C   0  0  0  0  0  0
   67.2576   29.7705    0.0971 C   0  0  0  0  0  0
   65.7954   29.3147    0.0742 C   0  0  0  0  0  0
   65.4175   28.4974    1.0704 N   0  0  0  0  0  0
   65.0461   29.7148   -0.8159 O   0  0  0  0  0  0
   64.0938   28.0354    1.0958 O   0  0  0  0  0  0
   74.1724   39.3472   -2.8144 H   0  0  0  0  0  0
   73.2537   39.7010   -5.0571 H   0  0  0  0  0  0
   71.8083   37.9881   -6.1032 H   0  0  0  0  0  0
   71.2639   35.9253   -4.9039 H   0  0  0  0  0  0
   74.0475   38.9216   -0.3386 H   0  0  0  0  0  0
   75.4382   38.2866   -1.2200 H   0  0  0  0  0  0
   75.8453   37.9756    1.1430 H   0  0  0  0  0  0
   75.6817   36.4232    0.3926 H   0  0  0  0  0  0
   74.5658   36.6998    2.6730 H   0  0  0  0  0  0
   73.4610   37.8348    1.9648 H   0  0  0  0  0  0
   72.4563   35.3904   -1.4084 H   0  0  0  0  0  0
   72.3326   32.2043   -1.8652 H   0  0  0  0  0  0
   69.8180   32.2879   -2.3703 H   0  0  0  0  0  0
   69.6032   33.2301   -0.9283 H   0  0  0  0  0  0
   74.0119   34.1992   -0.8799 H   0  0  0  0  0  0
   73.9393   32.6632   -0.0478 H   0  0  0  0  0  0
   74.8482   34.4622    1.4019 H   0  0  0  0  0  0
   73.4292   33.7470    2.0675 H   0  0  0  0  0  0
   72.3572   35.7151    2.1902 H   0  0  0  0  0  0
   72.5099   36.0255    0.5106 H   0  0  0  0  0  0
   69.7443   31.3677    0.4293 H   0  0  0  0  0  0
   71.1902   30.8156   -0.3407 H   0  0  0  0  0  0
   69.7253   29.0813   -0.8626 H   0  0  0  0  0  0
   69.7410   30.0289   -2.3127 H   0  0  0  0  0  0
   67.5017   29.4804   -2.0153 H   0  0  0  0  0  0
   67.5706   31.1551   -1.5510 H   0  0  0  0  0  0
   67.4380   30.5181    0.8647 H   0  0  0  0  0  0
   67.8181   28.9151    0.3840 H   0  0  0  0  0  0
   65.9926   28.1077    1.8056 H   0  0  0  0  0  0
   64.1558   27.1358    0.7593 H   0  0  0  0  0  0
  1  2  2  0  0  0
  1  5  1  0  0  0
  1 28  1  0  0  0
  2  3  1  0  0  0
  2 29  1  0  0  0
  3  4  2  0  0  0
  3 30  1  0  0  0
  4  9  1  0  0  0
  4 31  1  0  0  0
  5  6  1  0  0  0
  5  9  2  0  0  0
  6  7  1  0  0  0
  7  8  1  0  0  0
  7 32  1  0  0  0
  7 33  1  0  0  0
  8 10  1  0  0  0
  8 34  1  0  0  0
  8 35  1  0  0  0
  9 11  1  0  0  0
 10 19  1  0  0  0
 10 36  1  0  0  0
 10 37  1  0  0  0
 11 12  1  0  0  0
 11 38  1  0  0  0
 12 14  2  0  0  0
 12 13  1  0  0  0
 13 15  1  0  0  0
 13 16  1  0  0  0
 13 39  1  0  0  0
 15 20  1  0  0  0
 15 40  1  0  0  0
 15 41  1  0  0  0
 16 17  1  0  0  0
 17 18  1  0  0  0
 17 42  1  0  0  0
 17 43  1  0  0  0
 18 19  1  0  0  0
 18 44  1  0  0  0
 18 45  1  0  0  0
 19 46  1  0  0  0
 19 47  1  0  0  0
 20 21  1  0  0  0
 20 48  1  0  0  0
 20 49  1  0  0  0
 21 22  1  0  0  0
 21 50  1  0  0  0
 21 51  1  0  0  0
 22 23  1  0  0  0
 22 52  1  0  0  0
 22 53  1  0  0  0
 23 24  1  0  0  0
 23 54  1  0  0  0
 23 55  1  0  0  0
 24 25  1  0  0  0
 24 26  2  0  0  0
 25 27  1  0  0  0
 25 56  1  0  0  0
 27 57  1  0  0  0
M  END
> <s_m_entry_id>
52381

> <s_m_entry_name>
dock_pv.103

> <s_m_Source_Path>
/home/csk/Desktop/cluster/DUD-E-result/hdac2

> <s_m_Source_File>
dock_pv.maegz

> <i_m_Source_File_Index>
103

> <chembl_id>
CHEMBL1631911

> <chembl_pref_name>
None

> <i_lp_mmshare_version>
53161

> <i_f3d_flags>
0

> <r_lp_tautomer_probability>
1

> <s_lp_Force_Field>
OPLS_2005

> <r_lp_Energy>
39.385011

> <b_lp_Chiralities_Consistent>
1

> <s_lp_Variant>
CHEMBL1937_lig272-1

> <s_i_glide_gridfile>
glide-grid_3max

> <i_i_glide_lignum>
311

> <i_i_glide_rotatable_bonds>
8

> <r_i_docking_score>
-7.0651790081883

> <r_i_glide_ligand_efficiency>
-0.261673296599567

> <r_i_glide_ligand_efficiency_sa>
-0.785019888936267

> <r_i_glide_ligand_efficiency_ln>
-1.64465719452699

> <r_i_glide_gscore>
-7.0651790081883

> <r_i_glide_lipo>
-1.22327345597054

> <r_i_glide_hbond>
-0.232773496942567

> <r_i_glide_metal>
-2.3

> <r_i_glide_rewards>
-1.02433690630218

> <r_i_glide_evdw>
-30.8778400421143

> <r_i_glide_ecoul>
-9.9972677230835

> <r_i_glide_erotb>
0.81179499650279

> <r_i_glide_esite>
-0.0531079849075647

> <r_i_glide_emodel>
-56.692016526705

> <r_i_glide_energy>
-40.8751077651978

> <r_i_glide_einternal>
8.52481460571289

> <i_i_glide_confnum>
9

> <i_i_glide_posenum>
341

> <r_i_glide_eff_state_penalty>
0

> <s_user_duplicate_titles>
CHEMBL1937_lig272

> <s_m_subgroup_title>
dock_pv

> <s_m_subgroupid>
dock_pv

> <b_m_subgroup_collapsed>
1

$$$$
CHEMBL1937_lig658
                    3D
 Schrodinger Suite 2021-1.
 27 28  0  0  1  0            999 V2000
   65.7224   28.7784    0.2584 O   0  0  0  0  0  0
   67.0180   29.3150    0.3840 N   0  0  0  0  0  0
   67.3941   30.2972   -0.4456 C   0  0  0  0  0  0
   66.6053   30.8184   -1.2160 O   0  0  0  0  0  0
   68.7905   30.8381   -0.3911 C   0  0  0  0  0  0
   69.0346   32.2140   -0.4160 C   0  0  0  0  0  0
   70.2854   32.7432   -0.4378 N   0  0  0  0  0  0
   71.3178   31.8590   -0.4160 C   0  0  0  0  0  0
   72.6347   32.3167   -0.3098 N   0  0  0  0  0  0
   73.1582   33.6139   -0.3503 C   0  0  0  0  0  0
   74.2194   33.9348    0.4976 C   0  0  0  0  0  0
   74.7739   35.2142    0.4754 C   0  0  0  0  0  0
   74.2846   36.1781   -0.4082 C   0  0  0  0  0  0
   74.9994   37.7530   -0.4076 Cl  0  0  0  0  0  0
   73.2342   35.8538   -1.2777 C   0  0  0  0  0  0
   72.6180   37.0009   -2.4160 Cl  0  0  0  0  0  0
   72.6726   34.5769   -1.2404 C   0  0  0  0  0  0
   71.1814   30.5150   -0.4160 N   0  0  0  0  0  0
   69.9162   30.0229   -0.4182 C   0  0  0  0  0  0
   65.8669   27.9152   -0.1445 H   0  0  0  0  0  0
   67.5993   28.8556    1.0843 H   0  0  0  0  0  0
   68.2180   32.9150   -0.4174 H   0  0  0  0  0  0
   73.3157   31.5819   -0.1761 H   0  0  0  0  0  0
   74.6151   33.1979    1.1839 H   0  0  0  0  0  0
   75.5892   35.4524    1.1435 H   0  0  0  0  0  0
   71.8683   34.3317   -1.9176 H   0  0  0  0  0  0
   69.8180   28.9533   -0.4978 H   0  0  0  0  0  0
  1  2  1  0  0  0
  1 20  1  0  0  0
  2  3  1  0  0  0
  2 21  1  0  0  0
  3  4  2  0  0  0
  3  5  1  0  0  0
  5  6  2  0  0  0
  5 19  1  0  0  0
  6  7  1  0  0  0
  6 22  1  0  0  0
  7  8  2  0  0  0
  8  9  1  0  0  0
  8 18  1  0  0  0
  9 10  1  0  0  0
  9 23  1  0  0  0
 10 11  2  0  0  0
 10 17  1  0  0  0
 11 12  1  0  0  0
 11 24  1  0  0  0
 12 13  2  0  0  0
 12 25  1  0  0  0
 13 14  1  0  0  0
 13 15  1  0  0  0
 15 16  1  0  0  0
 15 17  2  0  0  0
 17 26  1  0  0  0
 18 19  2  0  0  0
 19 27  1  0  0  0
M  END
> <s_m_entry_id>
52382

> <s_m_entry_name>
dock_pv.104

> <s_m_Source_Path>
/home/csk/Desktop/cluster/DUD-E-result/hdac2

> <s_m_Source_File>
dock_pv.maegz

> <i_m_Source_File_Index>
104

> <chembl_id>
CHEMBL3652226

> <chembl_pref_name>
None

> <i_lp_mmshare_version>
53161

> <i_f3d_flags>
0

> <r_lp_tautomer_probability>
0.999999987636

> <s_lp_Force_Field>
OPLS_2005

> <r_lp_Energy>
13.125864

> <b_lp_Chiralities_Consistent>
1

> <s_lp_Variant>
CHEMBL1937_lig658-1

> <s_i_glide_gridfile>
glide-grid_3max

> <i_i_glide_lignum>
729

> <i_i_glide_rotatable_bonds>
5

> <r_i_docking_score>
-7.06231934183912

> <r_i_glide_ligand_efficiency>
-0.371701017991533

> <r_i_glide_ligand_efficiency_sa>
-0.991847608266753

> <r_i_glide_ligand_efficiency_ln>
-1.79044963786753

> <r_i_glide_gscore>
-7.06231934183912

> <r_i_glide_lipo>
-1.12607777784405

> <r_i_glide_hbond>
-0.32

> <r_i_glide_metal>
-2.3

> <r_i_glide_rewards>
-1.44057180687696

> <r_i_glide_evdw>
-17.1935577392578

> <r_i_glide_ecoul>
-11.0360956192017

> <r_i_glide_erotb>
0.820912548455249

> <r_i_glide_esite>
-0.181490075730229

> <r_i_glide_emodel>
-41.614254089618

> <r_i_glide_energy>
-28.2296533584595

> <r_i_glide_einternal>
4.52926158905029

> <i_i_glide_confnum>
24

> <i_i_glide_posenum>
5

> <r_i_glide_eff_state_penalty>
0

> <s_user_duplicate_titles>
CHEMBL1937_lig658

> <s_m_subgroup_title>
dock_pv

> <s_m_subgroupid>
dock_pv

> <b_m_subgroup_collapsed>
1

$$$$
CHEMBL1937_lig684
                    3D
 Schrodinger Suite 2021-1.
 30 31  0  0  1  0            999 V2000
   65.3455   28.3686    1.0855 O   0  0  0  0  0  0
   66.6179   28.9157    0.8468 N   0  0  0  0  0  0
   66.7748   29.7827   -0.1577 C   0  0  0  0  0  0
   65.8175   30.1748   -0.8159 O   0  0  0  0  0  0
   68.1348   30.4309   -0.3365 C   0  0  0  0  0  0
   69.3343   29.7149   -0.4167 C   0  0  0  0  0  0
   70.5487   30.3022   -0.5365 N   0  0  0  0  0  0
   70.5684   31.6475   -0.6404 C   0  0  0  0  0  0
   71.8442   32.2088   -0.7283 N   0  0  0  0  0  0
   72.2177   33.4898   -1.1404 C   0  0  0  0  0  0
   72.9533   34.3083   -0.2815 C   0  0  0  0  0  0
   73.3721   35.5692   -0.7071 C   0  0  0  0  0  0
   73.0794   36.0018   -2.0016 C   0  0  0  0  0  0
   72.3620   35.1795   -2.8815 C   0  0  0  0  0  0
   71.9228   33.9259   -2.4349 C   0  0  0  0  0  0
   72.0835   35.6380   -4.3119 C   0  0  0  0  0  0
   73.1264   35.3310   -5.0826 F   0  0  0  0  0  0
   71.0063   35.0362   -4.8132 F   0  0  0  0  0  0
   71.8882   36.9560   -4.3627 F   0  0  0  0  0  0
   69.4691   32.4464   -0.6328 N   0  0  0  0  0  0
   68.2755   31.8216   -0.4432 C   0  0  0  0  0  0
   65.0616   28.7888    1.9005 H   0  0  0  0  0  0
   67.3365   28.5900    1.4914 H   0  0  0  0  0  0
   69.3769   28.6391   -0.4121 H   0  0  0  0  0  0
   72.5961   31.5375   -0.6606 H   0  0  0  0  0  0
   73.2035   33.9688    0.7144 H   0  0  0  0  0  0
   73.9391   36.2032   -0.0402 H   0  0  0  0  0  0
   73.4288   36.9728   -2.3254 H   0  0  0  0  0  0
   71.3795   33.2692   -3.0996 H   0  0  0  0  0  0
   67.4192   32.4764   -0.4160 H   0  0  0  0  0  0
  1  2  1  0  0  0
  1 22  1  0  0  0
  2  3  1  0  0  0
  2 23  1  0  0  0
  3  4  2  0  0  0
  3  5  1  0  0  0
  5  6  2  0  0  0
  5 21  1  0  0  0
  6  7  1  0  0  0
  6 24  1  0  0  0
  7  8  2  0  0  0
  8  9  1  0  0  0
  8 20  1  0  0  0
  9 10  1  0  0  0
  9 25  1  0  0  0
 10 11  2  0  0  0
 10 15  1  0  0  0
 11 12  1  0  0  0
 11 26  1  0  0  0
 12 13  2  0  0  0
 12 27  1  0  0  0
 13 14  1  0  0  0
 13 28  1  0  0  0
 14 15  2  0  0  0
 14 16  1  0  0  0
 15 29  1  0  0  0
 16 17  1  0  0  0
 16 18  1  0  0  0
 16 19  1  0  0  0
 20 21  2  0  0  0
 21 30  1  0  0  0
M  END
> <s_m_entry_id>
52383

> <s_m_entry_name>
dock_pv.105

> <s_m_Source_Path>
/home/csk/Desktop/cluster/DUD-E-result/hdac2

> <s_m_Source_File>
dock_pv.maegz

> <i_m_Source_File_Index>
105

> <chembl_id>
CHEMBL3652242

> <chembl_pref_name>
None

> <i_lp_mmshare_version>
53161

> <i_f3d_flags>
0

> <r_lp_tautomer_probability>
0.999999987636

> <s_lp_Force_Field>
OPLS_2005

> <r_lp_Energy>
13.470195

> <b_lp_Chiralities_Consistent>
1

> <s_lp_Variant>
CHEMBL1937_lig684-1

> <s_i_glide_gridfile>
glide-grid_3max

> <i_i_glide_lignum>
755

> <i_i_glide_rotatable_bonds>
6

> <r_i_docking_score>
-7.04687164039817

> <r_i_glide_ligand_efficiency>
-0.335565316209437

> <r_i_glide_ligand_efficiency_sa>
-0.925799262705651

> <r_i_glide_ligand_efficiency_ln>
-1.74232477354352

> <r_i_glide_gscore>
-7.04687164039817

> <r_i_glide_lipo>
-0.965042341478413

> <r_i_glide_hbond>
-0.32

> <r_i_glide_metal>
-2.3

> <r_i_glide_rewards>
-1.56718733197751

> <r_i_glide_evdw>
-20.2330875396729

> <r_i_glide_ecoul>
-10.1291131973267

> <r_i_glide_erotb>
0.825210105961834

> <r_i_glide_esite>
-0.18883071632144

> <r_i_glide_emodel>
-43.4711379260961

> <r_i_glide_energy>
-30.3622007369995

> <r_i_glide_einternal>
4.01892614364624

> <i_i_glide_confnum>
20

> <i_i_glide_posenum>
24

> <r_i_glide_eff_state_penalty>
0

> <s_user_duplicate_titles>
CHEMBL1937_lig684

> <s_m_subgroup_title>
dock_pv

> <s_m_subgroupid>
dock_pv

> <b_m_subgroup_collapsed>
1

$$$$
CHEMBL1937_lig803
                    3D
 Schrodinger Suite 2021-1.
 30 31  0  0  1  0            999 V2000
   65.7224   28.7782    0.2590 O   0  0  0  0  0  0
   67.0180   29.3150    0.3840 N   0  0  0  0  0  0
   67.3935   30.2961   -0.4451 C   0  0  0  0  0  0
   66.6050   30.8170   -1.2160 O   0  0  0  0  0  0
   68.7896   30.8354   -0.3891 C   0  0  0  0  0  0
   69.0302   32.2109   -0.4160 C   0  0  0  0  0  0
   70.2774   32.7411   -0.4609 N   0  0  0  0  0  0
   71.3127   31.8609   -0.4450 C   0  0  0  0  0  0
   72.6243   32.3454   -0.4444 N   0  0  0  0  0  0
   73.0984   33.6107   -0.8131 C   0  0  0  0  0  0
   74.1703   34.1667   -0.1155 C   0  0  0  0  0  0
   74.6671   35.4169   -0.4805 C   0  0  0  0  0  0
   75.6967   35.9610    0.2050 F   0  0  0  0  0  0
   74.1070   36.1072   -1.5556 C   0  0  0  0  0  0
   73.0445   35.5545   -2.2808 C   0  0  0  0  0  0
   72.5446   34.3044   -1.8958 C   0  0  0  0  0  0
   72.4634   36.3069   -3.4793 C   0  0  0  0  0  0
   71.4180   35.6738   -4.0160 F   0  0  0  0  0  0
   72.0681   37.5238   -3.1058 F   0  0  0  0  0  0
   73.3992   36.4300   -4.4205 F   0  0  0  0  0  0
   71.1830   30.5150   -0.4160 N   0  0  0  0  0  0
   69.9172   30.0215   -0.4160 C   0  0  0  0  0  0
   65.8667   27.9150   -0.1437 H   0  0  0  0  0  0
   67.5994   28.8561    1.0846 H   0  0  0  0  0  0
   68.2175   32.9150   -0.4160 H   0  0  0  0  0  0
   73.3317   31.6342   -0.3212 H   0  0  0  0  0  0
   74.6181   33.6365    0.7142 H   0  0  0  0  0  0
   74.5109   37.0709   -1.8305 H   0  0  0  0  0  0
   71.7318   33.8560   -2.4477 H   0  0  0  0  0  0
   69.8180   28.9515   -0.4885 H   0  0  0  0  0  0
  1  2  1  0  0  0
  1 23  1  0  0  0
  2  3  1  0  0  0
  2 24  1  0  0  0
  3  4  2  0  0  0
  3  5  1  0  0  0
  5  6  2  0  0  0
  5 22  1  0  0  0
  6  7  1  0  0  0
  6 25  1  0  0  0
  7  8  2  0  0  0
  8  9  1  0  0  0
  8 21  1  0  0  0
  9 10  1  0  0  0
  9 26  1  0  0  0
 10 11  2  0  0  0
 10 16  1  0  0  0
 11 12  1  0  0  0
 11 27  1  0  0  0
 12 13  1  0  0  0
 12 14  2  0  0  0
 14 15  1  0  0  0
 14 28  1  0  0  0
 15 16  2  0  0  0
 15 17  1  0  0  0
 16 29  1  0  0  0
 17 18  1  0  0  0
 17 19  1  0  0  0
 17 20  1  0  0  0
 21 22  2  0  0  0
 22 30  1  0  0  0
M  END
> <s_m_entry_id>
52384

> <s_m_entry_name>
dock_pv.106

> <s_m_Source_Path>
/home/csk/Desktop/cluster/DUD-E-result/hdac2

> <s_m_Source_File>
dock_pv.maegz

> <i_m_Source_File_Index>
106

> <chembl_id>
CHEMBL3655909

> <chembl_pref_name>
None

> <i_lp_mmshare_version>
53161

> <i_f3d_flags>
0

> <r_lp_tautomer_probability>
0.999999987636

> <s_lp_Force_Field>
OPLS_2005

> <r_lp_Energy>
13.383974

> <b_lp_Chiralities_Consistent>
1

> <s_lp_Variant>
CHEMBL1937_lig803-1

> <s_i_glide_gridfile>
glide-grid_3max

> <i_i_glide_lignum>
876

> <i_i_glide_rotatable_bonds>
6

> <r_i_docking_score>
-7.03359355937607

> <r_i_glide_ligand_efficiency>
-0.319708798153458

> <r_i_glide_ligand_efficiency_sa>
-0.895836625859531

> <r_i_glide_ligand_efficiency_ln>
-1.71926682247021

> <r_i_glide_gscore>
-7.03359355937607

> <r_i_glide_lipo>
-1.13994756220274

> <r_i_glide_hbond>
-0.32

> <r_i_glide_metal>
-2.3

> <r_i_glide_rewards>
-1.32389283779339

> <r_i_glide_evdw>
-18.7927913665771

> <r_i_glide_ecoul>
-10.5046348571777

> <r_i_glide_erotb>
0.744620912471221

> <r_i_glide_esite>
-0.179039274945646

> <r_i_glide_emodel>
-42.7746950107647

> <r_i_glide_energy>
-29.2974262237549

> <r_i_glide_einternal>
4.32086753845215

> <i_i_glide_confnum>
12

> <i_i_glide_posenum>
288

> <r_i_glide_eff_state_penalty>
0

> <s_user_duplicate_titles>
CHEMBL1937_lig803

> <s_m_subgroup_title>
dock_pv

> <s_m_subgroupid>
dock_pv

> <b_m_subgroup_collapsed>
1

$$$$
CHEMBL1937_lig799
                    3D
 Schrodinger Suite 2021-1.
 34 36  0  0  1  0            999 V2000
   65.2932   28.9150   -1.2160 O   0  0  0  0  0  0
   66.6180   29.3513   -1.2162 N   0  0  0  0  0  0
   67.1586   29.8175   -0.0934 C   0  0  0  0  0  0
   66.6180   29.7150    1.0086 O   0  0  0  0  0  0
   68.5090   30.4553   -0.3170 C   0  0  0  0  0  0
   69.5891   29.6663   -0.6793 C   0  0  0  0  0  0
   70.8427   30.1321   -0.8160 N   0  0  0  0  0  0
   71.0296   31.4567   -0.6900 C   0  0  0  0  0  0
   72.3762   31.8060   -0.8592 N   0  0  0  0  0  0
   72.9298   33.1422   -0.9915 C   0  0  0  0  0  0
   73.0180   33.9942    0.2556 C   0  0  0  0  0  0
   74.2582   33.3438   -0.2768 C   0  0  0  0  0  0
   72.7329   33.7866   -2.3560 C   0  0  0  0  0  0
   71.5795   34.5297   -2.6188 C   0  0  0  0  0  0
   71.4180   35.1632   -3.8504 C   0  0  0  0  0  0
   72.4048   35.0523   -4.8260 C   0  0  0  0  0  0
   73.5434   34.2873   -4.5851 C   0  0  0  0  0  0
   73.7083   33.6541   -3.3548 C   0  0  0  0  0  0
   74.8210   32.9146   -3.1423 F   0  0  0  0  0  0
   70.0366   32.3537   -0.4160 N   0  0  0  0  0  0
   68.7845   31.8291   -0.2119 C   0  0  0  0  0  0
   65.3592   27.9479   -1.2692 H   0  0  0  0  0  0
   67.1522   29.0833   -2.0396 H   0  0  0  0  0  0
   69.4882   28.6010   -0.8136 H   0  0  0  0  0  0
   73.0128   31.0418   -1.0333 H   0  0  0  0  0  0
   72.9099   35.0755    0.1699 H   0  0  0  0  0  0
   72.6187   33.5987    1.1840 H   0  0  0  0  0  0
   74.6945   32.5186    0.2907 H   0  0  0  0  0  0
   75.0211   33.9789   -0.7276 H   0  0  0  0  0  0
   70.8149   34.6230   -1.8635 H   0  0  0  0  0  0
   70.5324   35.7486   -4.0486 H   0  0  0  0  0  0
   72.2859   35.5573   -5.7718 H   0  0  0  0  0  0
   74.3054   34.1928   -5.3447 H   0  0  0  0  0  0
   68.0062   32.5365    0.0319 H   0  0  0  0  0  0
  1  2  1  0  0  0
  1 22  1  0  0  0
  2  3  1  0  0  0
  2 23  1  0  0  0
  3  4  2  0  0  0
  3  5  1  0  0  0
  5  6  2  0  0  0
  5 21  1  0  0  0
  6  7  1  0  0  0
  6 24  1  0  0  0
  7  8  2  0  0  0
  8  9  1  0  0  0
  8 20  1  0  0  0
  9 10  1  0  0  0
  9 25  1  0  0  0
 10 11  1  0  0  0
 10 12  1  0  0  0
 10 13  1  0  0  0
 11 12  1  0  0  0
 11 26  1  0  0  0
 11 27  1  0  0  0
 12 28  1  0  0  0
 12 29  1  0  0  0
 13 14  2  0  0  0
 13 18  1  0  0  0
 14 15  1  0  0  0
 14 30  1  0  0  0
 15 16  2  0  0  0
 15 31  1  0  0  0
 16 17  1  0  0  0
 16 32  1  0  0  0
 17 18  2  0  0  0
 17 33  1  0  0  0
 18 19  1  0  0  0
 20 21  2  0  0  0
 21 34  1  0  0  0
M  END
> <s_m_entry_id>
52385

> <s_m_entry_name>
dock_pv.107

> <s_m_Source_Path>
/home/csk/Desktop/cluster/DUD-E-result/hdac2

> <s_m_Source_File>
dock_pv.maegz

> <i_m_Source_File_Index>
107

> <chembl_id>
CHEMBL3655959

> <chembl_pref_name>
None

> <i_lp_mmshare_version>
53161

> <i_f3d_flags>
0

> <r_lp_tautomer_probability>
0.999999987636

> <s_lp_Force_Field>
OPLS_2005

> <r_lp_Energy>
28.377535

> <b_lp_Chiralities_Consistent>
1

> <s_lp_Variant>
CHEMBL1937_lig799-1

> <s_i_glide_gridfile>
glide-grid_3max

> <i_i_glide_lignum>
872

> <i_i_glide_rotatable_bonds>
6

> <r_i_docking_score>
-6.96403390161653

> <r_i_glide_ligand_efficiency>
-0.33162066198174

> <r_i_glide_ligand_efficiency_sa>
-0.914916260800439

> <r_i_glide_ligand_efficiency_ln>
-1.72184331001918

> <r_i_glide_gscore>
-6.96403390161653

> <r_i_glide_lipo>
-1.30011818539932

> <r_i_glide_hbond>
-0.14848340798959

> <r_i_glide_metal>
-2.29822398751724

> <r_i_glide_rewards>
-1.59816341189661

> <r_i_glide_evdw>
-16.0893840789795

> <r_i_glide_ecoul>
-11.393310546875

> <r_i_glide_erotb>
1.09442087716645

> <r_i_glide_esite>
-0.2

> <r_i_glide_emodel>
-30.0273915150927

> <r_i_glide_energy>
-27.4826946258545

> <r_i_glide_einternal>
9.03415489196777

> <i_i_glide_confnum>
56

> <i_i_glide_posenum>
260

> <r_i_glide_eff_state_penalty>
0

> <s_user_duplicate_titles>
CHEMBL1937_lig799

> <s_m_subgroup_title>
dock_pv

> <s_m_subgroupid>
dock_pv

> <b_m_subgroup_collapsed>
1

$$$$
CHEMBL1937_lig229
                    3D
 Schrodinger Suite 2021-1.
 30 31  0  0  1  0            999 V2000
   62.7849   28.3617    5.9398 C   0  0  0  0  0  0
   64.1678   28.1149    5.9348 C   0  0  0  0  0  0
   64.8511   28.0797    4.6991 C   0  0  0  0  0  0
   64.1213   28.1148    3.5006 C   0  0  0  0  0  0
   62.7364   28.1609    3.5361 C   0  0  0  0  0  0
   62.0801   28.3429    4.7365 C   0  0  0  0  0  0
   64.7566   28.1169    2.1828 C   0  0  0  0  0  0
   64.9537   29.2549    1.5009 C   0  0  0  0  0  0
   65.6186   29.3156    0.2355 C   0  0  0  0  0  0
   66.9502   29.3871    0.3405 N   0  0  0  0  0  0
   65.0167   29.5176   -0.8158 O   0  0  0  0  0  0
   67.6778   29.7153   -0.8162 O   0  0  0  0  0  0
   61.9813   28.6861    7.1399 C   0  0  0  0  0  0
   61.6246   30.0238    7.3440 C   0  0  0  0  0  0
   60.6170   30.3232    8.2533 C   0  0  0  0  0  0
   59.9565   29.3811    8.9612 N   0  0  0  0  0  0
   60.3773   28.1069    8.8234 C   0  0  0  0  0  0
   61.4179   27.7149    7.9840 C   0  0  0  0  0  0
   64.7211   28.1000    6.8620 H   0  0  0  0  0  0
   65.9286   28.0019    4.6836 H   0  0  0  0  0  0
   62.1667   28.1250    2.6235 H   0  0  0  0  0  0
   61.0044   28.4542    4.7326 H   0  0  0  0  0  0
   65.0182   27.1646    1.7557 H   0  0  0  0  0  0
   64.6325   30.2046    1.8952 H   0  0  0  0  0  0
   67.5411   29.2022    1.1491 H   0  0  0  0  0  0
   68.0145   28.8620   -1.1293 H   0  0  0  0  0  0
   62.1048   30.8079    6.7837 H   0  0  0  0  0  0
   60.2631   31.3267    8.3862 H   0  0  0  0  0  0
   59.8605   27.3661    9.4085 H   0  0  0  0  0  0
   61.6967   26.6714    7.9836 H   0  0  0  0  0  0
  1  6  1  0  0  0
  1  2  2  0  0  0
  1 13  1  0  0  0
  2  3  1  0  0  0
  2 19  1  0  0  0
  3  4  2  0  0  0
  3 20  1  0  0  0
  4  5  1  0  0  0
  4  7  1  0  0  0
  5  6  2  0  0  0
  5 21  1  0  0  0
  6 22  1  0  0  0
  7  8  2  0  0  0
  7 23  1  0  0  0
  8  9  1  0  0  0
  8 24  1  0  0  0
  9 10  1  0  0  0
  9 11  2  0  0  0
 10 12  1  0  0  0
 10 25  1  0  0  0
 12 26  1  0  0  0
 13 14  2  0  0  0
 13 18  1  0  0  0
 14 15  1  0  0  0
 14 27  1  0  0  0
 15 16  2  0  0  0
 15 28  1  0  0  0
 16 17  1  0  0  0
 17 18  2  0  0  0
 17 29  1  0  0  0
 18 30  1  0  0  0
M  END
> <s_m_entry_id>
52386

> <s_m_entry_name>
dock_pv.108

> <s_m_Source_Path>
/home/csk/Desktop/cluster/DUD-E-result/hdac2

> <s_m_Source_File>
dock_pv.maegz

> <i_m_Source_File_Index>
108

> <chembl_id>
CHEMBL554573

> <chembl_pref_name>
None

> <i_lp_mmshare_version>
53161

> <i_f3d_flags>
0

> <r_lp_tautomer_probability>
1

> <s_lp_Force_Field>
OPLS_2005

> <r_lp_Energy>
18.580835

> <b_lp_Chiralities_Consistent>
1

> <s_lp_Variant>
CHEMBL1937_lig229-1

> <s_i_glide_gridfile>
glide-grid_3max

> <i_i_glide_lignum>
266

> <i_i_glide_rotatable_bonds>
5

> <r_i_docking_score>
-6.95135574323291

> <r_i_glide_ligand_efficiency>
-0.386186430179606

> <r_i_glide_ligand_efficiency_sa>
-1.01209476247835

> <r_i_glide_ligand_efficiency_ln>
-1.78681014973028

> <r_i_glide_gscore>
-6.95135574323291

> <r_i_glide_lipo>
-2.02296943082767

> <r_i_glide_hbond>
-0.304

> <r_i_glide_metal>
-2.3

> <r_i_glide_rewards>
-1.77097308899088

> <r_i_glide_evdw>
0.16310578584671

> <r_i_glide_ecoul>
-11.3245000839233

> <r_i_glide_erotb>
1.19878719052723

> <r_i_glide_esite>
-0.0616806906454215

> <r_i_glide_emodel>
-16.7064242054899

> <r_i_glide_energy>
-11.1613942980766

> <r_i_glide_einternal>
15.2380170822144

> <i_i_glide_confnum>
50

> <i_i_glide_posenum>
134

> <r_i_glide_eff_state_penalty>
0

> <s_user_duplicate_titles>
CHEMBL1937_lig229

> <s_m_subgroup_title>
dock_pv

> <s_m_subgroupid>
dock_pv

> <b_m_subgroup_collapsed>
1

$$$$
CHEMBL1937_lig809
                    3D
 Schrodinger Suite 2021-1.
 27 28  0  0  1  0            999 V2000
   65.7223   28.7786    0.2592 O   0  0  0  0  0  0
   67.0180   29.3150    0.3840 N   0  0  0  0  0  0
   67.3940   30.2961   -0.4460 C   0  0  0  0  0  0
   66.6050   30.8176   -1.2160 O   0  0  0  0  0  0
   68.7903   30.8363   -0.3907 C   0  0  0  0  0  0
   69.9173   30.0220   -0.4165 C   0  0  0  0  0  0
   71.1829   30.5150   -0.4160 N   0  0  0  0  0  0
   71.3164   31.8605   -0.4160 C   0  0  0  0  0  0
   72.6307   32.3315   -0.3299 N   0  0  0  0  0  0
   73.1345   33.6333   -0.4339 C   0  0  0  0  0  0
   74.2002   34.0116    0.3847 C   0  0  0  0  0  0
   74.7272   35.2998    0.2976 C   0  0  0  0  0  0
   75.7488   35.6694    1.1009 F   0  0  0  0  0  0
   74.2015   36.2097   -0.6184 C   0  0  0  0  0  0
   73.1503   35.8310   -1.4505 C   0  0  0  0  0  0
   72.6474   36.7061   -2.3496 F   0  0  0  0  0  0
   72.6180   34.5474   -1.3583 C   0  0  0  0  0  0
   70.2816   32.7416   -0.4363 N   0  0  0  0  0  0
   69.0324   32.2119   -0.4160 C   0  0  0  0  0  0
   65.8664   27.9152   -0.1434 H   0  0  0  0  0  0
   67.5994   28.8558    1.0844 H   0  0  0  0  0  0
   69.8180   28.9525   -0.4957 H   0  0  0  0  0  0
   73.3238   31.6083   -0.1971 H   0  0  0  0  0  0
   74.6194   33.3150    1.0985 H   0  0  0  0  0  0
   74.6139   37.2048   -0.6875 H   0  0  0  0  0  0
   71.8089   34.2662   -2.0149 H   0  0  0  0  0  0
   68.2180   32.9150   -0.4169 H   0  0  0  0  0  0
  1  2  1  0  0  0
  1 20  1  0  0  0
  2  3  1  0  0  0
  2 21  1  0  0  0
  3  4  2  0  0  0
  3  5  1  0  0  0
  5  6  2  0  0  0
  5 19  1  0  0  0
  6  7  1  0  0  0
  6 22  1  0  0  0
  7  8  2  0  0  0
  8  9  1  0  0  0
  8 18  1  0  0  0
  9 10  1  0  0  0
  9 23  1  0  0  0
 10 11  2  0  0  0
 10 17  1  0  0  0
 11 12  1  0  0  0
 11 24  1  0  0  0
 12 13  1  0  0  0
 12 14  2  0  0  0
 14 15  1  0  0  0
 14 25  1  0  0  0
 15 16  1  0  0  0
 15 17  2  0  0  0
 17 26  1  0  0  0
 18 19  2  0  0  0
 19 27  1  0  0  0
M  END
> <s_m_entry_id>
52387

> <s_m_entry_name>
dock_pv.109

> <s_m_Source_Path>
/home/csk/Desktop/cluster/DUD-E-result/hdac2

> <s_m_Source_File>
dock_pv.maegz

> <i_m_Source_File_Index>
109

> <chembl_id>
CHEMBL3652238

> <chembl_pref_name>
None

> <i_lp_mmshare_version>
53161

> <i_f3d_flags>
0

> <r_lp_tautomer_probability>
0.999999987636

> <s_lp_Force_Field>
OPLS_2005

> <r_lp_Energy>
13.518675

> <b_lp_Chiralities_Consistent>
1

> <s_lp_Variant>
CHEMBL1937_lig809-1

> <s_i_glide_gridfile>
glide-grid_3max

> <i_i_glide_lignum>
882

> <i_i_glide_rotatable_bonds>
5

> <r_i_docking_score>
-6.92915760197892

> <r_i_glide_ligand_efficiency>
-0.364692505367311

> <r_i_glide_ligand_efficiency_sa>
-0.973146081643548

> <r_i_glide_ligand_efficiency_ln>
-1.75669027676104

> <r_i_glide_gscore>
-6.92915760197892

> <r_i_glide_lipo>
-1.04025602156182

> <r_i_glide_hbond>
-0.32

> <r_i_glide_metal>
-2.3

> <r_i_glide_rewards>
-1.66487257830401

> <r_i_glide_evdw>
-16.5715808868408

> <r_i_glide_ecoul>
-10.6651849746704

> <r_i_glide_erotb>
1.00528561640464

> <r_i_glide_esite>
-0.180957827975127

> <r_i_glide_emodel>
-40.2801991723362

> <r_i_glide_energy>
-27.2367658615112

> <r_i_glide_einternal>
3.18551969528198

> <i_i_glide_confnum>
23

> <i_i_glide_posenum>
339

> <r_i_glide_eff_state_penalty>
0

> <s_user_duplicate_titles>
CHEMBL1937_lig809

> <s_m_subgroup_title>
dock_pv

> <s_m_subgroupid>
dock_pv

> <b_m_subgroup_collapsed>
1

$$$$
CHEMBL1937_lig361
                    3D
 Schrodinger Suite 2021-1.
 36 37  0  0  1  0            999 V2000
   66.1374   28.9923    2.2480 C   0  0  0  0  0  0
   65.8026   28.8505    0.9148 C   0  0  0  0  0  0
   64.6305   28.1545    0.5900 C   0  0  0  0  0  0
   63.7425   27.7863    1.5946 C   0  0  0  0  0  0
   64.0089   28.1163    2.9283 C   0  0  0  0  0  0
   65.3019   28.5188    3.2431 C   0  0  0  0  0  0
   62.9385   28.1151    4.0041 C   0  0  0  0  0  0
   61.6598   28.1141    3.5841 N   0  0  0  0  0  0
   63.2510   28.1150    5.1981 O   0  0  0  0  0  0
   60.6178   28.1287    4.5300 O   0  0  0  0  0  0
   66.6351   29.4747   -0.1666 C   0  0  0  0  0  0
   67.9505   29.7160   -0.0159 N   0  0  0  0  0  0
   66.0939   29.7144   -1.2079 O   0  0  0  0  0  0
   68.9057   29.9824   -1.0962 C   0  0  0  0  0  0
   69.3526   31.4488   -1.2696 C   0  0  0  0  0  0
   70.7201   31.8866   -0.7812 C   0  0  0  0  0  0
   71.5166   31.0774    0.0262 C   0  0  0  0  0  0
   72.7820   31.5290    0.3839 C   0  0  0  0  0  0
   73.2806   32.7310   -0.0013 N   0  0  0  0  0  0
   72.4944   33.5154   -0.7801 C   0  0  0  0  0  0
   71.2179   33.1311   -1.1929 C   0  0  0  0  0  0
   67.0180   29.5311    2.5177 H   0  0  0  0  0  0
   64.3590   27.9629   -0.4383 H   0  0  0  0  0  0
   62.8198   27.3143    1.3162 H   0  0  0  0  0  0
   65.6264   28.5949    4.2702 H   0  0  0  0  0  0
   61.3262   28.0998    2.6318 H   0  0  0  0  0  0
   60.1818   27.2725    4.4342 H   0  0  0  0  0  0
   68.3538   29.4366    0.8784 H   0  0  0  0  0  0
   69.7464   29.2890   -1.0575 H   0  0  0  0  0  0
   68.4482   29.7150   -2.0480 H   0  0  0  0  0  0
   69.4838   31.5555   -2.3390 H   0  0  0  0  0  0
   68.5750   32.1523   -0.9725 H   0  0  0  0  0  0
   71.1608   30.1299    0.3819 H   0  0  0  0  0  0
   73.4093   30.9198    1.0159 H   0  0  0  0  0  0
   72.9104   34.4677   -1.0740 H   0  0  0  0  0  0
   70.6297   33.7855   -1.8207 H   0  0  0  0  0  0
  1  2  2  0  0  0
  1  6  1  0  0  0
  1 22  1  0  0  0
  2  3  1  0  0  0
  2 11  1  0  0  0
  3  4  2  0  0  0
  3 23  1  0  0  0
  4  5  1  0  0  0
  4 24  1  0  0  0
  5  6  2  0  0  0
  5  7  1  0  0  0
  6 25  1  0  0  0
  7  8  1  0  0  0
  7  9  2  0  0  0
  8 10  1  0  0  0
  8 26  1  0  0  0
 10 27  1  0  0  0
 11 12  1  0  0  0
 11 13  2  0  0  0
 12 14  1  0  0  0
 12 28  1  0  0  0
 14 15  1  0  0  0
 14 29  1  0  0  0
 14 30  1  0  0  0
 15 16  1  0  0  0
 15 31  1  0  0  0
 15 32  1  0  0  0
 16 17  2  0  0  0
 16 21  1  0  0  0
 17 18  1  0  0  0
 17 33  1  0  0  0
 18 19  2  0  0  0
 18 34  1  0  0  0
 19 20  1  0  0  0
 20 21  2  0  0  0
 20 35  1  0  0  0
 21 36  1  0  0  0
M  END
> <s_m_entry_id>
52388

> <s_m_entry_name>
dock_pv.110

> <s_m_Source_Path>
/home/csk/Desktop/cluster/DUD-E-result/hdac2

> <s_m_Source_File>
dock_pv.maegz

> <i_m_Source_File_Index>
110

> <chembl_id>
CHEMBL2333339

> <chembl_pref_name>
None

> <i_lp_mmshare_version>
53161

> <i_f3d_flags>
0

> <r_lp_tautomer_probability>
1

> <s_lp_Force_Field>
OPLS_2005

> <r_lp_Energy>
28.048256

> <b_lp_Chiralities_Consistent>
1

> <s_lp_Variant>
CHEMBL1937_lig361-1

> <s_i_glide_gridfile>
glide-grid_3max

> <i_i_glide_lignum>
407

> <i_i_glide_rotatable_bonds>
8

> <r_i_docking_score>
-6.92667242894928

> <r_i_glide_ligand_efficiency>
-0.32984154423568

> <r_i_glide_ligand_efficiency_sa>
-0.910007809843188

> <r_i_glide_ligand_efficiency_ln>
-1.71260576139816

> <r_i_glide_gscore>
-6.92667242894928

> <r_i_glide_lipo>
-2.41077047804101

> <r_i_glide_hbond>
-0.323972258225977

> <r_i_glide_metal>
-2.3

> <r_i_glide_rewards>
-1.63538581009631

> <r_i_glide_evdw>
-15.1138429641724

> <r_i_glide_ecoul>
-13.5184869766235

> <r_i_glide_erotb>
2.67455857351118

> <r_i_glide_esite>
-0.147637261395015

> <r_i_glide_emodel>
-32.6359416471056

> <r_i_glide_energy>
-28.6323299407959

> <r_i_glide_einternal>
10.5107192993164

> <i_i_glide_confnum>
41

> <i_i_glide_posenum>
60

> <r_i_glide_eff_state_penalty>
0

> <s_user_duplicate_titles>
CHEMBL1937_lig361

> <s_m_subgroup_title>
dock_pv

> <s_m_subgroupid>
dock_pv

> <b_m_subgroup_collapsed>
1

$$$$
CHEMBL1937_lig128
                    3D
 Schrodinger Suite 2021-1.
 40 40  0  0  1  0            999 V2000
   71.0737   30.9540   -1.1279 C   0  0  0  0  0  0
   70.8348   32.3128   -1.2911 C   0  0  0  0  0  0
   69.5664   32.8331   -1.0590 C   0  0  0  0  0  0
   68.5308   31.9945   -0.6441 C   0  0  0  0  0  0
   68.7574   30.6232   -0.5090 C   0  0  0  0  0  0
   70.0313   30.1150   -0.7497 C   0  0  0  0  0  0
   67.8106   29.7150   -0.0160 N   0  0  0  0  0  0
   66.4646   29.7044   -0.0616 C   0  0  0  0  0  0
   65.7168   28.6859    0.8618 C   0  0  1  0  0  0
   65.8181   30.4283   -0.8160 O   0  0  0  0  0  0
   65.8965   28.8853    2.3968 C   0  0  0  0  0  0
   64.3098   28.8088    0.6486 O   0  0  0  0  0  0
   64.7460   28.2934    3.2603 C   0  0  0  0  0  0
   65.1262   27.9551    4.7300 C   0  0  0  0  0  0
   64.1009   28.1481    5.8998 C   0  0  0  0  0  0
   62.6180   28.5151    5.6698 C   0  0  0  0  0  0
   61.9943   28.1214    4.5436 N   0  0  0  0  0  0
   62.0512   29.1723    6.5468 O   0  0  0  0  0  0
   60.6326   28.4464    4.3846 O   0  0  0  0  0  0
   63.7619   27.9271   -0.3097 C   0  0  0  0  0  0
   72.0603   30.5475   -1.3013 H   0  0  0  0  0  0
   71.6380   32.9657   -1.6002 H   0  0  0  0  0  0
   69.3895   33.8835   -1.2164 H   0  0  0  0  0  0
   67.5577   32.4128   -0.4378 H   0  0  0  0  0  0
   70.2197   29.0584   -0.6401 H   0  0  0  0  0  0
   68.2280   29.0127    0.5872 H   0  0  0  0  0  0
   66.0450   27.6726    0.6237 H   0  0  0  0  0  0
   66.8193   28.4088    2.7127 H   0  0  0  0  0  0
   66.0081   29.9421    2.6364 H   0  0  0  0  0  0
   63.9276   29.0060    3.1996 H   0  0  0  0  0  0
   64.3649   27.3817    2.7966 H   0  0  0  0  0  0
   65.4494   26.9161    4.7658 H   0  0  0  0  0  0
   66.0259   28.5138    4.9973 H   0  0  0  0  0  0
   64.1379   27.3151    6.5808 H   0  0  0  0  0  0
   64.4954   28.9479    6.5260 H   0  0  0  0  0  0
   62.3610   27.5458    3.7985 H   0  0  0  0  0  0
   60.1683   27.6133    4.5360 H   0  0  0  0  0  0
   62.6932   28.0916   -0.4160 H   0  0  0  0  0  0
   64.2186   28.1150   -1.2721 H   0  0  0  0  0  0
   63.9018   26.8898   -0.0134 H   0  0  0  0  0  0
  1  6  1  0  0  0
  1  2  2  0  0  0
  1 21  1  0  0  0
  2  3  1  0  0  0
  2 22  1  0  0  0
  3  4  2  0  0  0
  3 23  1  0  0  0
  4  5  1  0  0  0
  4 24  1  0  0  0
  5  6  2  0  0  0
  5  7  1  0  0  0
  6 25  1  0  0  0
  7  8  1  0  0  0
  7 26  1  0  0  0
  8 10  2  0  0  0
  8  9  1  0  0  0
  9 11  1  0  0  0
  9 12  1  0  0  0
  9 27  1  0  0  0
 11 13  1  0  0  0
 11 28  1  0  0  0
 11 29  1  0  0  0
 12 20  1  0  0  0
 13 14  1  0  0  0
 13 30  1  0  0  0
 13 31  1  0  0  0
 14 15  1  0  0  0
 14 32  1  0  0  0
 14 33  1  0  0  0
 15 16  1  0  0  0
 15 34  1  0  0  0
 15 35  1  0  0  0
 16 17  1  0  0  0
 16 18  2  0  0  0
 17 19  1  0  0  0
 17 36  1  0  0  0
 19 37  1  0  0  0
 20 38  1  0  0  0
 20 39  1  0  0  0
 20 40  1  0  0  0
M  END
> <s_m_entry_id>
52389

> <s_m_entry_name>
dock_pv.111

> <s_m_Source_Path>
/home/csk/Desktop/cluster/DUD-E-result/hdac2

> <s_m_Source_File>
dock_pv.maegz

> <i_m_Source_File_Index>
111

> <chembl_id>
CHEMBL251206

> <chembl_pref_name>
None

> <i_lp_mmshare_version>
53161

> <i_f3d_flags>
0

> <r_lp_tautomer_probability>
1

> <s_lp_Force_Field>
OPLS_2005

> <r_lp_Energy>
19.16599

> <b_lp_Chiralities_Consistent>
1

> <s_lp_Variant>
CHEMBL1937_lig128-2

> <s_i_glide_gridfile>
glide-grid_3max

> <i_i_glide_lignum>
147

> <i_i_glide_rotatable_bonds>
11

> <r_i_docking_score>
-6.91970916729851

> <r_i_glide_ligand_efficiency>
-0.345985458364926

> <r_i_glide_ligand_efficiency_sa>
-0.939149022333605

> <r_i_glide_ligand_efficiency_ln>
-1.73177497729191

> <r_i_glide_gscore>
-6.91970916729851

> <r_i_glide_lipo>
-2.9283414677467

> <r_i_glide_hbond>
-0.368881206805275

> <r_i_glide_metal>
-2.3

> <r_i_glide_rewards>
-1.8297841817591

> <r_i_glide_evdw>
-21.4841690063477

> <r_i_glide_ecoul>
-12.7437944412231

> <r_i_glide_erotb>
3.67691757648899

> <r_i_glide_esite>
-0.183842270975571

> <r_i_glide_emodel>
-44.1310215703685

> <r_i_glide_energy>
-34.2279634475708

> <r_i_glide_einternal>
12.6786823272705

> <i_i_glide_confnum>
91

> <i_i_glide_posenum>
312

> <r_i_glide_eff_state_penalty>
0

> <s_user_duplicate_titles>
CHEMBL1937_lig128,416378

> <s_m_subgroup_title>
dock_pv

> <s_m_subgroupid>
dock_pv

> <b_m_subgroup_collapsed>
1

$$$$
CHEMBL1937_lig703
                    3D
 Schrodinger Suite 2021-1.
 27 28  0  0  1  0            999 V2000
   65.3364   28.4117    1.1603 O   0  0  0  0  0  0
   66.6180   28.9150    0.8731 N   0  0  0  0  0  0
   66.7799   29.7443   -0.1674 C   0  0  0  0  0  0
   65.8109   30.1150   -0.8160 O   0  0  0  0  0  0
   68.1395   30.3988   -0.4057 C   0  0  0  0  0  0
   69.3582   29.7150   -0.4196 C   0  0  0  0  0  0
   70.5688   30.3127   -0.5390 N   0  0  0  0  0  0
   70.5710   31.6486   -0.7220 C   0  0  0  0  0  0
   71.8380   32.2342   -0.8006 N   0  0  0  0  0  0
   72.2178   33.5328   -1.1682 C   0  0  0  0  0  0
   71.6835   34.1113   -2.3237 C   0  0  0  0  0  0
   72.0678   35.3908   -2.7188 C   0  0  0  0  0  0
   71.4180   36.0736   -4.1631 Cl  0  0  0  0  0  0
   72.9775   36.1129   -1.9479 C   0  0  0  0  0  0
   73.5014   35.5526   -0.7827 C   0  0  0  0  0  0
   73.1276   34.2656   -0.3886 C   0  0  0  0  0  0
   73.8102   33.6144    1.0643 Cl  0  0  0  0  0  0
   69.4566   32.4163   -0.8159 N   0  0  0  0  0  0
   68.2706   31.7725   -0.6504 C   0  0  0  0  0  0
   65.3877   27.4874    0.8998 H   0  0  0  0  0  0
   67.3425   28.5878    1.5103 H   0  0  0  0  0  0
   69.4180   28.6544   -0.4160 H   0  0  0  0  0  0
   72.5985   31.6113   -0.5677 H   0  0  0  0  0  0
   70.9849   33.5553   -2.9281 H   0  0  0  0  0  0
   73.2758   37.1060   -2.2512 H   0  0  0  0  0  0
   74.2046   36.1154   -0.1859 H   0  0  0  0  0  0
   67.4180   32.4038   -0.7843 H   0  0  0  0  0  0
  1  2  1  0  0  0
  1 20  1  0  0  0
  2  3  1  0  0  0
  2 21  1  0  0  0
  3  4  2  0  0  0
  3  5  1  0  0  0
  5  6  2  0  0  0
  5 19  1  0  0  0
  6  7  1  0  0  0
  6 22  1  0  0  0
  7  8  2  0  0  0
  8  9  1  0  0  0
  8 18  1  0  0  0
  9 10  1  0  0  0
  9 23  1  0  0  0
 10 11  2  0  0  0
 10 16  1  0  0  0
 11 12  1  0  0  0
 11 24  1  0  0  0
 12 13  1  0  0  0
 12 14  2  0  0  0
 14 15  1  0  0  0
 14 25  1  0  0  0
 15 16  2  0  0  0
 15 26  1  0  0  0
 16 17  1  0  0  0
 18 19  2  0  0  0
 19 27  1  0  0  0
M  END
> <s_m_entry_id>
52390

> <s_m_entry_name>
dock_pv.112

> <s_m_Source_Path>
/home/csk/Desktop/cluster/DUD-E-result/hdac2

> <s_m_Source_File>
dock_pv.maegz

> <i_m_Source_File_Index>
112

> <chembl_id>
CHEMBL3652234

> <chembl_pref_name>
None

> <i_lp_mmshare_version>
53161

> <i_f3d_flags>
0

> <r_lp_tautomer_probability>
0.999999987636

> <s_lp_Force_Field>
OPLS_2005

> <r_lp_Energy>
11.693156

> <b_lp_Chiralities_Consistent>
1

> <s_lp_Variant>
CHEMBL1937_lig703-1

> <s_i_glide_gridfile>
glide-grid_3max

> <i_i_glide_lignum>
774

> <i_i_glide_rotatable_bonds>
5

> <r_i_docking_score>
-6.88406971624816

> <r_i_glide_ligand_efficiency>
-0.362319458749903

> <r_i_glide_ligand_efficiency_sa>
-0.966813840143376

> <r_i_glide_ligand_efficiency_ln>
-1.7452595293293

> <r_i_glide_gscore>
-6.88406971624816

> <r_i_glide_lipo>
-0.987591374705207

> <r_i_glide_hbond>
-0.32

> <r_i_glide_metal>
-2.3

> <r_i_glide_rewards>
-1.56958763971808

> <r_i_glide_evdw>
-16.3261470794678

> <r_i_glide_ecoul>
-10.1980123519897

> <r_i_glide_erotb>
0.820912548455249

> <r_i_glide_esite>
-0.181794043508269

> <r_i_glide_emodel>
-40.2392788756067

> <r_i_glide_energy>
-26.5241594314575

> <r_i_glide_einternal>
4.11649417877197

> <i_i_glide_confnum>
8

> <i_i_glide_posenum>
254

> <r_i_glide_eff_state_penalty>
0

> <s_user_duplicate_titles>
CHEMBL1937_lig703

> <s_m_subgroup_title>
dock_pv

> <s_m_subgroupid>
dock_pv

> <b_m_subgroup_collapsed>
1

$$$$
CHEMBL1937_lig915
                    3D
 Schrodinger Suite 2021-1.
 52 55  0  0  1  0            999 V2000
   61.9485   28.3059    6.0043 C   0  0  0  0  0  0
   63.1197   28.1857    5.0433 C   0  0  0  0  0  0
   64.4127   28.0983    5.5725 C   0  0  0  0  0  0
   65.5404   28.1121    4.7358 C   0  0  0  0  0  0
   65.3289   28.3608    3.3691 C   0  0  0  0  0  0
   66.2117   28.6700    2.3477 N   0  0  0  0  0  0
   65.5614   28.7880    1.1352 C   0  0  0  0  0  0
   64.2282   28.4997    1.3793 C   0  0  0  0  0  0
   64.0341   28.3722    2.7961 C   0  0  0  0  0  0
   62.9205   28.2801    3.6549 C   0  0  0  0  0  0
   66.1872   29.1745   -0.1174 C   0  0  0  0  0  0
   65.6144   29.0606   -1.2110 O   0  0  0  0  0  0
   67.4119   29.7211    0.0239 N   0  0  0  0  0  0
   67.8273   30.9492   -0.6455 C   0  0  0  0  0  0
   69.3070   31.2781   -0.7516 C   0  0  0  0  0  0
   69.6666   32.5898   -1.0615 C   0  0  0  0  0  0
   70.9945   32.9258   -1.2797 C   0  0  0  0  0  0
   71.9906   31.9483   -1.1806 C   0  0  0  0  0  0
   71.6336   30.6637   -0.7511 C   0  0  0  0  0  0
   70.3003   30.3288   -0.5469 C   0  0  0  0  0  0
   73.4115   32.2175   -1.6224 C   0  0  0  0  0  0
   74.3200   31.4676   -1.2708 O   0  0  0  0  0  0
   73.5344   33.2255   -2.5187 N   0  0  0  0  0  0
   74.4239   33.3413   -3.6079 C   0  0  0  0  0  0
   73.8413   33.8460   -4.7745 C   0  0  0  0  0  0
   74.5759   33.9394   -5.9552 C   0  0  0  0  0  0
   75.9043   33.5218   -5.9895 C   0  0  0  0  0  0
   76.5043   33.0442   -4.8280 C   0  0  0  0  0  0
   75.7875   32.9716   -3.6315 C   0  0  0  0  0  0
   76.4792   32.5368   -2.5049 N   0  0  0  0  0  0
   62.1252   27.7173    6.9071 H   0  0  0  0  0  0
   61.0128   27.9636    5.5578 H   0  0  0  0  0  0
   61.8254   29.3377    6.3266 H   0  0  0  0  0  0
   64.5562   28.0378    6.6416 H   0  0  0  0  0  0
   66.5301   28.1058    5.1547 H   0  0  0  0  0  0
   67.2210   28.7545    2.4223 H   0  0  0  0  0  0
   63.4597   28.4740    0.6212 H   0  0  0  0  0  0
   61.9219   28.3153    3.2490 H   0  0  0  0  0  0
   67.9509   29.4675    0.8440 H   0  0  0  0  0  0
   67.3715   30.9838   -1.6159 H   0  0  0  0  0  0
   67.4201   31.8021   -0.1315 H   0  0  0  0  0  0
   68.9044   33.3435   -1.1743 H   0  0  0  0  0  0
   71.2236   33.9410   -1.5640 H   0  0  0  0  0  0
   72.3843   29.8935   -0.6512 H   0  0  0  0  0  0
   70.0386   29.3186   -0.2844 H   0  0  0  0  0  0
   72.7076   33.7928   -2.6229 H   0  0  0  0  0  0
   72.8043   34.1561   -4.7946 H   0  0  0  0  0  0
   74.1100   34.3226   -6.8486 H   0  0  0  0  0  0
   76.4669   33.5823   -6.9075 H   0  0  0  0  0  0
   77.5376   32.7409   -4.8662 H   0  0  0  0  0  0
   77.3877   32.1393   -2.6688 H   0  0  0  0  0  0
   75.8823   32.0868   -1.8101 H   0  0  0  0  0  0
  1  2  1  0  0  0
  1 31  1  0  0  0
  1 32  1  0  0  0
  1 33  1  0  0  0
  2  3  2  0  0  0
  2 10  1  0  0  0
  3  4  1  0  0  0
  3 34  1  0  0  0
  4  5  2  0  0  0
  4 35  1  0  0  0
  5  6  1  0  0  0
  5  9  1  0  0  0
  6  7  1  0  0  0
  6 36  1  0  0  0
  7  8  2  0  0  0
  7 11  1  0  0  0
  8  9  1  0  0  0
  8 37  1  0  0  0
  9 10  2  0  0  0
 10 38  1  0  0  0
 11 12  2  0  0  0
 11 13  1  0  0  0
 13 14  1  0  0  0
 13 39  1  0  0  0
 14 15  1  0  0  0
 14 40  1  0  0  0
 14 41  1  0  0  0
 15 16  2  0  0  0
 15 20  1  0  0  0
 16 17  1  0  0  0
 16 42  1  0  0  0
 17 18  2  0  0  0
 17 43  1  0  0  0
 18 19  1  0  0  0
 18 21  1  0  0  0
 19 20  2  0  0  0
 19 44  1  0  0  0
 20 45  1  0  0  0
 21 22  2  0  0  0
 21 23  1  0  0  0
 23 24  1  0  0  0
 23 46  1  0  0  0
 24 25  2  0  0  0
 24 29  1  0  0  0
 25 26  1  0  0  0
 25 47  1  0  0  0
 26 27  2  0  0  0
 26 48  1  0  0  0
 27 28  1  0  0  0
 27 49  1  0  0  0
 28 29  2  0  0  0
 28 50  1  0  0  0
 29 30  1  0  0  0
 30 51  1  0  0  0
 30 52  1  0  0  0
M  END
> <s_m_entry_id>
52391

> <s_m_entry_name>
dock_pv.113

> <s_m_Source_Path>
/home/csk/Desktop/cluster/DUD-E-result/hdac2

> <s_m_Source_File>
dock_pv.maegz

> <i_m_Source_File_Index>
113

> <chembl_id>
CHEMBL3673107

> <chembl_pref_name>
None

> <i_lp_mmshare_version>
53161

> <i_f3d_flags>
0

> <r_lp_tautomer_probability>
1

> <s_lp_Force_Field>
OPLS_2005

> <r_lp_Energy>
21.776856

> <b_lp_Chiralities_Consistent>
1

> <s_lp_Variant>
CHEMBL1937_lig915-1

> <s_i_glide_gridfile>
glide-grid_3max

> <i_i_glide_lignum>
1001

> <i_i_glide_rotatable_bonds>
7

> <r_i_docking_score>
-6.86179429827823

> <r_i_glide_ligand_efficiency>
-0.228726476609274

> <r_i_glide_ligand_efficiency_sa>
-0.710706342286881

> <r_i_glide_ligand_efficiency_ln>
-1.55907442980592

> <r_i_glide_gscore>
-6.86179429827823

> <r_i_glide_lipo>
-3.20670170144293

> <r_i_glide_hbond>
-0.608

> <r_i_glide_metal>
-2.3

> <r_i_glide_rewards>
0.307427893364676

> <r_i_glide_evdw>
-13.384313583374

> <r_i_glide_ecoul>
-7.07429170608521

> <r_i_glide_erotb>
0.863485019305575

> <r_i_glide_esite>
-0.187646074424073

> <r_i_glide_emodel>
-2.28653490013191

> <r_i_glide_energy>
-20.4586052894592

> <r_i_glide_einternal>
42.3075561523438

> <i_i_glide_confnum>
5

> <i_i_glide_posenum>
318

> <r_i_glide_eff_state_penalty>
0

> <s_user_duplicate_titles>
CHEMBL1937_lig915

> <s_m_subgroup_title>
dock_pv

> <s_m_subgroupid>
dock_pv

> <b_m_subgroup_collapsed>
1

$$$$
CHEMBL1937_lig637
                    3D
 Schrodinger Suite 2021-1.
 38 40  0  0  1  0            999 V2000
   73.1574   37.6940   -2.8156 C   0  0  0  0  0  0
   72.8926   36.3679   -2.3684 O   0  0  0  0  0  0
   73.1982   35.9809   -1.0753 C   0  0  0  0  0  0
   73.8180   36.8681   -0.1757 C   0  0  0  0  0  0
   74.1290   36.4783    1.1206 C   0  0  0  0  0  0
   73.8406   35.1887    1.5401 C   0  0  0  0  0  0
   74.2180   34.7164    3.1558 Cl  0  0  0  0  0  0
   73.2424   34.2901    0.6597 C   0  0  0  0  0  0
   72.8859   34.6620   -0.6506 C   0  0  0  0  0  0
   72.1840   33.6158   -1.5708 C   0  0  0  0  0  0
   72.5834   33.5208   -3.0367 C   0  0  0  0  0  0
   71.2254   34.0488   -2.6804 C   0  0  0  0  0  0
   71.9462   32.2859   -0.9889 N   0  0  0  0  0  0
   70.6875   31.7313   -0.7013 C   0  0  0  0  0  0
   70.6809   30.3823   -0.5845 N   0  0  0  0  0  0
   69.4744   29.7788   -0.4321 C   0  0  0  0  0  0
   68.2791   30.4858   -0.3467 C   0  0  0  0  0  0
   68.3915   31.8782   -0.4242 C   0  0  0  0  0  0
   69.5787   32.5151   -0.6113 N   0  0  0  0  0  0
   66.9551   29.7800   -0.2414 C   0  0  0  0  0  0
   66.2180   29.7150   -1.2160 O   0  0  0  0  0  0
   66.6180   29.3150    0.9701 N   0  0  0  0  0  0
   65.3811   28.6692    1.1315 O   0  0  0  0  0  0
   72.8232   37.7958   -3.8481 H   0  0  0  0  0  0
   72.6181   38.4340   -2.2226 H   0  0  0  0  0  0
   74.2246   37.9192   -2.7920 H   0  0  0  0  0  0
   74.0703   37.8766   -0.4626 H   0  0  0  0  0  0
   74.6003   37.1756    1.7978 H   0  0  0  0  0  0
   73.0410   33.2945    1.0268 H   0  0  0  0  0  0
   73.3374   34.1999   -3.4332 H   0  0  0  0  0  0
   72.6336   32.5432   -3.5134 H   0  0  0  0  0  0
   70.3611   33.4331   -2.9135 H   0  0  0  0  0  0
   71.0084   35.1002   -2.8454 H   0  0  0  0  0  0
   72.7134   31.6316   -1.0457 H   0  0  0  0  0  0
   69.4696   28.7017   -0.4162 H   0  0  0  0  0  0
   67.5189   32.5129   -0.4160 H   0  0  0  0  0  0
   67.2264   29.2572    1.7806 H   0  0  0  0  0  0
   65.6132   27.7373    1.1909 H   0  0  0  0  0  0
  1  2  1  0  0  0
  1 24  1  0  0  0
  1 25  1  0  0  0
  1 26  1  0  0  0
  2  3  1  0  0  0
  3  4  2  0  0  0
  3  9  1  0  0  0
  4  5  1  0  0  0
  4 27  1  0  0  0
  5  6  2  0  0  0
  5 28  1  0  0  0
  6  7  1  0  0  0
  6  8  1  0  0  0
  8  9  2  0  0  0
  8 29  1  0  0  0
  9 10  1  0  0  0
 10 11  1  0  0  0
 10 12  1  0  0  0
 10 13  1  0  0  0
 11 12  1  0  0  0
 11 30  1  0  0  0
 11 31  1  0  0  0
 12 32  1  0  0  0
 12 33  1  0  0  0
 13 14  1  0  0  0
 13 34  1  0  0  0
 14 15  2  0  0  0
 14 19  1  0  0  0
 15 16  1  0  0  0
 16 17  2  0  0  0
 16 35  1  0  0  0
 17 18  1  0  0  0
 17 20  1  0  0  0
 18 19  2  0  0  0
 18 36  1  0  0  0
 20 21  2  0  0  0
 20 22  1  0  0  0
 22 23  1  0  0  0
 22 37  1  0  0  0
 23 38  1  0  0  0
M  END
> <s_m_entry_id>
52392

> <s_m_entry_name>
dock_pv.114

> <s_m_Source_Path>
/home/csk/Desktop/cluster/DUD-E-result/hdac2

> <s_m_Source_File>
dock_pv.maegz

> <i_m_Source_File_Index>
114

> <chembl_id>
CHEMBL3656008

> <chembl_pref_name>
None

> <i_lp_mmshare_version>
53161

> <i_f3d_flags>
0

> <r_lp_tautomer_probability>
0.999999987636

> <s_lp_Force_Field>
OPLS_2005

> <r_lp_Energy>
24.632746

> <b_lp_Chiralities_Consistent>
1

> <s_lp_Variant>
CHEMBL1937_lig637-1

> <s_i_glide_gridfile>
glide-grid_3max

> <i_i_glide_lignum>
708

> <i_i_glide_rotatable_bonds>
7

> <r_i_docking_score>
-6.85236417702349

> <r_i_glide_ligand_efficiency>
-0.297928877261891

> <r_i_glide_ligand_efficiency_sa>
-0.847270095503804

> <r_i_glide_ligand_efficiency_ln>
-1.65696379180739

> <r_i_glide_gscore>
-6.85236417702349

> <r_i_glide_lipo>
-1.02847481566219

> <r_i_glide_hbond>
-0.219590348214099

> <r_i_glide_metal>
-2.3

> <r_i_glide_rewards>
-1.26568996645488

> <r_i_glide_evdw>
-24.1387481689453

> <r_i_glide_ecoul>
-9.98686218261719

> <r_i_glide_erotb>
0.841703531550285

> <r_i_glide_esite>
-0.175345842402765

> <r_i_glide_emodel>
-42.6734576017725

> <r_i_glide_energy>
-34.1256103515625

> <r_i_glide_einternal>
18.7017211914062

> <i_i_glide_confnum>
23

> <i_i_glide_posenum>
310

> <r_i_glide_eff_state_penalty>
0

> <s_user_duplicate_titles>
CHEMBL1937_lig637

> <s_m_subgroup_title>
dock_pv

> <s_m_subgroupid>
dock_pv

> <b_m_subgroup_collapsed>
1

$$$$
CHEMBL1937_lig782
                    3D
 Schrodinger Suite 2021-1.
 27 28  0  0  1  0            999 V2000
   65.3778   28.6779    1.1410 O   0  0  0  0  0  0
   66.6180   29.3150    0.9726 N   0  0  0  0  0  0
   66.9510   29.7738   -0.2413 C   0  0  0  0  0  0
   66.2180   29.7150   -1.2160 O   0  0  0  0  0  0
   68.2819   30.4532   -0.3506 C   0  0  0  0  0  0
   69.4565   29.7150   -0.4184 C   0  0  0  0  0  0
   70.6818   30.2871   -0.4985 N   0  0  0  0  0  0
   70.7235   31.6375   -0.5594 C   0  0  0  0  0  0
   72.0097   32.1819   -0.6207 N   0  0  0  0  0  0
   72.4375   33.4908   -0.8708 C   0  0  0  0  0  0
   73.5351   33.9775   -0.1593 C   0  0  0  0  0  0
   73.9983   35.2696   -0.3956 C   0  0  0  0  0  0
   73.3707   36.0647   -1.3522 C   0  0  0  0  0  0
   73.8180   37.3199   -1.5786 F   0  0  0  0  0  0
   72.2860   35.5778   -2.0784 C   0  0  0  0  0  0
   71.8186   34.2877   -1.8393 C   0  0  0  0  0  0
   69.6341   32.4529   -0.5357 N   0  0  0  0  0  0
   68.4250   31.8433   -0.4161 C   0  0  0  0  0  0
   65.6038   27.7446    1.2027 H   0  0  0  0  0  0
   67.2307   29.2528    1.7796 H   0  0  0  0  0  0
   69.4186   28.6377   -0.4160 H   0  0  0  0  0  0
   72.7469   31.4950   -0.5511 H   0  0  0  0  0  0
   74.0274   33.3606    0.5806 H   0  0  0  0  0  0
   74.8428   35.6528    0.1577 H   0  0  0  0  0  0
   71.8126   36.2014   -2.8222 H   0  0  0  0  0  0
   70.9816   33.9098   -2.4065 H   0  0  0  0  0  0
   67.5675   32.4986   -0.4160 H   0  0  0  0  0  0
  1  2  1  0  0  0
  1 19  1  0  0  0
  2  3  1  0  0  0
  2 20  1  0  0  0
  3  4  2  0  0  0
  3  5  1  0  0  0
  5  6  2  0  0  0
  5 18  1  0  0  0
  6  7  1  0  0  0
  6 21  1  0  0  0
  7  8  2  0  0  0
  8  9  1  0  0  0
  8 17  1  0  0  0
  9 10  1  0  0  0
  9 22  1  0  0  0
 10 11  2  0  0  0
 10 16  1  0  0  0
 11 12  1  0  0  0
 11 23  1  0  0  0
 12 13  2  0  0  0
 12 24  1  0  0  0
 13 14  1  0  0  0
 13 15  1  0  0  0
 15 16  2  0  0  0
 15 25  1  0  0  0
 16 26  1  0  0  0
 17 18  2  0  0  0
 18 27  1  0  0  0
M  END
> <s_m_entry_id>
52393

> <s_m_entry_name>
dock_pv.115

> <s_m_Source_Path>
/home/csk/Desktop/cluster/DUD-E-result/hdac2

> <s_m_Source_File>
dock_pv.maegz

> <i_m_Source_File_Index>
115

> <chembl_id>
CHEMBL3652227

> <chembl_pref_name>
None

> <i_lp_mmshare_version>
53161

> <i_f3d_flags>
0

> <r_lp_tautomer_probability>
0.999999987636

> <s_lp_Force_Field>
OPLS_2005

> <r_lp_Energy>
12.046652

> <b_lp_Chiralities_Consistent>
1

> <s_lp_Variant>
CHEMBL1937_lig782-1

> <s_i_glide_gridfile>
glide-grid_3max

> <i_i_glide_lignum>
855

> <i_i_glide_rotatable_bonds>
5

> <r_i_docking_score>
-6.83622087433836

> <r_i_glide_ligand_efficiency>
-0.379790048574353

> <r_i_glide_ligand_efficiency_sa>
-0.995331500448456

> <r_i_glide_ligand_efficiency_ln>
-1.75721532536398

> <r_i_glide_gscore>
-6.83622087433836

> <r_i_glide_lipo>
-0.85755401977404

> <r_i_glide_hbond>
-0.22257768434936

> <r_i_glide_metal>
-2.3

> <r_i_glide_rewards>
-1.858372531864

> <r_i_glide_evdw>
-19.1815567016602

> <r_i_glide_ecoul>
-10.6473836898804

> <r_i_glide_erotb>
1.13385124883924

> <r_i_glide_esite>
-0.175382498625135

> <r_i_glide_emodel>
-43.0902770638375

> <r_i_glide_energy>
-29.8289403915405

> <r_i_glide_einternal>
7.7447395324707

> <i_i_glide_confnum>
15

> <i_i_glide_posenum>
366

> <r_i_glide_eff_state_penalty>
0

> <s_user_duplicate_titles>
CHEMBL1937_lig782

> <s_m_subgroup_title>
dock_pv

> <s_m_subgroupid>
dock_pv

> <b_m_subgroup_collapsed>
1

$$$$
234614
                    3D
 Schrodinger Suite 2021-1.
 46 48  0  0  1  0            999 V2000
   71.4180   34.4351   -2.6903 C   0  0  0  0  0  0
   72.7330   33.9923   -2.5890 C   0  0  0  0  0  0
   73.0629   32.8180   -1.9135 C   0  0  0  0  0  0
   72.0076   32.0920   -1.3521 C   0  0  0  0  0  0
   70.6421   32.5108   -1.4501 C   0  0  0  0  0  0
   70.3685   33.7150   -2.1198 C   0  0  0  0  0  0
   69.8265   31.5182   -0.7895 C   0  0  0  0  0  0
   70.7201   30.5929   -0.3064 C   0  0  0  0  0  0
   72.0086   30.9221   -0.6313 N   0  0  0  0  0  0
   68.3240   31.5005   -0.5912 C   0  0  0  0  0  0
   67.6830   30.1149   -0.8439 C   0  0  0  0  0  0
   66.2180   30.2014   -0.8160 N   0  0  1  0  0  0
   65.5636   28.8959   -0.7716 C   0  0  0  0  0  0
   65.1343   28.5225    0.6327 C   0  0  0  0  0  0
   63.9139   27.8733    0.8216 C   0  0  0  0  0  0
   63.4180   27.7150    2.1114 C   0  0  0  0  0  0
   64.1742   28.1150    3.2039 C   0  0  0  0  0  0
   65.4487   28.6255    3.0132 C   0  0  0  0  0  0
   65.9079   28.8789    1.7366 C   0  0  0  0  0  0
   63.6454   28.1150    4.5642 C   0  0  0  0  0  0
   62.3960   28.4938    4.9024 C   0  0  0  0  0  0
   61.9862   28.5150    6.2813 C   0  0  0  0  0  0
   62.7408   28.1607    7.1840 O   0  0  0  0  0  0
   60.7191   28.9150    6.4716 N   0  0  0  0  0  0
   60.2180   28.9150    7.7811 O   0  0  0  0  0  0
   72.8095   30.3676   -0.3588 H   0  0  0  0  0  0
   71.2111   35.3567   -3.2159 H   0  0  0  0  0  0
   73.5208   34.5809   -3.0374 H   0  0  0  0  0  0
   74.0891   32.4902   -1.8287 H   0  0  0  0  0  0
   69.3566   34.0822   -2.1993 H   0  0  0  0  0  0
   70.5161   29.7150    0.2766 H   0  0  0  0  0  0
   67.8509   32.2507   -1.2156 H   0  0  0  0  0  0
   68.1387   31.8077    0.4351 H   0  0  0  0  0  0
   68.0626   29.4078   -0.1060 H   0  0  0  0  0  0
   68.0138   29.7238   -1.8079 H   0  0  0  0  0  0
   65.9640   30.7553    0.0055 H   0  0  0  0  0  0
   66.2180   28.1150   -1.1544 H   0  0  0  0  0  0
   64.6871   28.8703   -1.4188 H   0  0  0  0  0  0
   63.3133   27.5680   -0.0238 H   0  0  0  0  0  0
   62.4486   27.2704    2.2777 H   0  0  0  0  0  0
   66.0545   28.9132    3.8573 H   0  0  0  0  0  0
   66.8663   29.3593    1.6281 H   0  0  0  0  0  0
   64.3447   27.7909    5.3268 H   0  0  0  0  0  0
   61.6806   28.8007    4.1531 H   0  0  0  0  0  0
   60.0043   29.0543    5.7708 H   0  0  0  0  0  0
   59.7776   28.0569    7.8343 H   0  0  0  0  0  0
  1  6  1  0  0  0
  1  2  2  0  0  0
  1 27  1  0  0  0
  2  3  1  0  0  0
  2 28  1  0  0  0
  3  4  2  0  0  0
  3 29  1  0  0  0
  4  9  1  0  0  0
  4  5  1  0  0  0
  5  6  2  0  0  0
  5  7  1  0  0  0
  6 30  1  0  0  0
  7  8  2  0  0  0
  7 10  1  0  0  0
  8  9  1  0  0  0
  8 31  1  0  0  0
  9 26  1  0  0  0
 10 11  1  0  0  0
 10 32  1  0  0  0
 10 33  1  0  0  0
 11 12  1  0  0  0
 11 34  1  0  0  0
 11 35  1  0  0  0
 12 13  1  0  0  0
 12 36  1  0  0  0
 13 14  1  0  0  0
 13 37  1  0  0  0
 13 38  1  0  0  0
 14 19  1  0  0  0
 14 15  2  0  0  0
 15 16  1  0  0  0
 15 39  1  0  0  0
 16 17  2  0  0  0
 16 40  1  0  0  0
 17 18  1  0  0  0
 17 20  1  0  0  0
 18 19  2  0  0  0
 18 41  1  0  0  0
 19 42  1  0  0  0
 20 21  2  0  0  0
 20 43  1  0  0  0
 21 22  1  0  0  0
 21 44  1  0  0  0
 22 23  2  0  0  0
 22 24  1  0  0  0
 24 25  1  0  0  0
 24 45  1  0  0  0
 25 46  1  0  0  0
M  END
> <s_m_entry_id>
52577

> <s_m_entry_name>
ligand_docking-pose.2

> <s_m_Source_Path>
/home/csk/Desktop/cluster/DUD-E-result/hdac2

> <s_m_Source_File>
ligand_docking-pose.sdf

> <i_m_Source_File_Index>
2

> <i_lp_mmshare_version>
53161

> <r_lp_tautomer_probability>
1

> <s_lp_Force_Field>
OPLS_2005

> <r_lp_Energy>
20.701911

> <b_lp_Chiralities_Consistent>
1

> <s_lp_Variant>
234614-1

> <s_i_glide_gridfile>
glide-grid_3max

> <i_i_glide_lignum>
36

> <i_i_glide_rotatable_bonds>
9

> <r_i_docking_score>
-9.83967490245034

> <r_i_glide_ligand_efficiency>
-0.393586996098014

> <r_i_glide_ligand_efficiency_sa>
-1.15085535688569

> <r_i_glide_ligand_efficiency_ln>
-2.33229782314291

> <r_i_glide_gscore>
-9.83967490245034

> <r_i_glide_lipo>
-3.10167177735059

> <r_i_glide_hbond>
-0.305820360427501

> <r_i_glide_metal>
-2.21707340987006

> <r_i_glide_rewards>
-1.47918957899492

> <r_i_glide_evdw>
-35.2378425598145

> <r_i_glide_ecoul>
-13.5497741699219

> <r_i_glide_erotb>
1.17439303429318

> <r_i_glide_esite>
-0.115954556621446

> <r_i_glide_emodel>
-68.779082076787

> <r_i_glide_energy>
-48.7876167297363

> <r_i_glide_einternal>
12.137357711792

> <i_i_glide_confnum>
22

> <i_i_glide_posenum>
303

> <r_i_glide_eff_state_penalty>
0

> <i_f3d_flags>
0

> <s_user_duplicate_titles>
234614

> <s_m_subgroup_title>
dock_pv

> <s_m_subgroupid>
dock_pv1

> <b_m_subgroup_collapsed>
0

$$$$
234673
                    3D
 Schrodinger Suite 2021-1.
 45 47  0  0  1  0            999 V2000
   63.9131   27.8709    0.8158 C   0  0  0  0  0  0
   63.4180   27.7150    2.1067 C   0  0  0  0  0  0
   64.1760   28.1150    3.1984 C   0  0  0  0  0  0
   65.4519   28.6216    3.0053 C   0  0  0  0  0  0
   65.9126   28.8679    1.7275 C   0  0  0  0  0  0
   65.1360   28.5150    0.6243 C   0  0  0  0  0  0
   65.5642   28.8917   -0.7804 C   0  0  0  0  0  0
   66.2180   30.1972   -0.8160 N   0  0  2  0  0  0
   67.6880   30.1267   -0.8273 C   0  0  0  0  0  0
   68.3032   31.4781   -0.3826 C   0  0  0  0  0  0
   69.7855   31.6446   -0.6925 C   0  0  0  0  0  0
   70.7321   30.8407   -0.0326 C   0  0  0  0  0  0
   72.1043   30.9697   -0.2941 C   0  0  0  0  0  0
   72.4909   31.9345   -1.2160 C   0  0  0  0  0  0
   71.5813   32.7366   -1.8435 C   0  0  0  0  0  0
   70.2180   32.6286   -1.5980 C   0  0  0  0  0  0
   72.2266   33.5606   -2.7097 O   0  0  0  0  0  0
   73.5922   33.3989   -2.4300 C   0  0  0  0  0  0
   73.7362   32.2272   -1.6727 O   0  0  0  0  0  0
   63.6489   28.1150    4.5603 C   0  0  0  0  0  0
   62.3998   28.4932    4.9004 C   0  0  0  0  0  0
   61.9897   28.5150    6.2797 C   0  0  0  0  0  0
   62.7433   28.1621    7.1840 O   0  0  0  0  0  0
   60.7220   28.9150    6.4680 N   0  0  0  0  0  0
   60.2180   28.9150    7.7765 O   0  0  0  0  0  0
   63.3100   27.5676   -0.0285 H   0  0  0  0  0  0
   62.4479   27.2726    2.2746 H   0  0  0  0  0  0
   66.0599   28.9085    3.8482 H   0  0  0  0  0  0
   66.8742   29.3413    1.6157 H   0  0  0  0  0  0
   66.2180   28.1150   -1.1703 H   0  0  0  0  0  0
   64.6856   28.8706   -1.4248 H   0  0  0  0  0  0
   65.9461   30.7491    0.0011 H   0  0  0  0  0  0
   68.0621   29.3391   -0.1716 H   0  0  0  0  0  0
   68.0480   29.8557   -1.8207 H   0  0  0  0  0  0
   67.7532   32.3142   -0.8160 H   0  0  0  0  0  0
   68.2179   31.5905    0.6983 H   0  0  0  0  0  0
   70.3948   30.1150    0.6903 H   0  0  0  0  0  0
   72.8319   30.3438    0.2033 H   0  0  0  0  0  0
   69.5138   33.2827   -2.0876 H   0  0  0  0  0  0
   73.9429   34.2487   -1.8405 H   0  0  0  0  0  0
   74.1733   33.3357   -3.3504 H   0  0  0  0  0  0
   64.3490   27.7914    5.3223 H   0  0  0  0  0  0
   61.6838   28.7996    4.1515 H   0  0  0  0  0  0
   60.0083   29.0528    5.7658 H   0  0  0  0  0  0
   59.7777   28.0567    7.8288 H   0  0  0  0  0  0
  1  6  1  0  0  0
  1  2  2  0  0  0
  1 26  1  0  0  0
  2  3  1  0  0  0
  2 27  1  0  0  0
  3  4  2  0  0  0
  3 20  1  0  0  0
  4  5  1  0  0  0
  4 28  1  0  0  0
  5  6  2  0  0  0
  5 29  1  0  0  0
  6  7  1  0  0  0
  7  8  1  0  0  0
  7 30  1  0  0  0
  7 31  1  0  0  0
  8  9  1  0  0  0
  8 32  1  0  0  0
  9 10  1  0  0  0
  9 33  1  0  0  0
  9 34  1  0  0  0
 10 11  1  0  0  0
 10 35  1  0  0  0
 10 36  1  0  0  0
 11 16  1  0  0  0
 11 12  2  0  0  0
 12 13  1  0  0  0
 12 37  1  0  0  0
 13 14  2  0  0  0
 13 38  1  0  0  0
 14 19  1  0  0  0
 14 15  1  0  0  0
 15 16  2  0  0  0
 15 17  1  0  0  0
 16 39  1  0  0  0
 17 18  1  0  0  0
 18 19  1  0  0  0
 18 40  1  0  0  0
 18 41  1  0  0  0
 20 21  2  0  0  0
 20 42  1  0  0  0
 21 22  1  0  0  0
 21 43  1  0  0  0
 22 23  2  0  0  0
 22 24  1  0  0  0
 24 25  1  0  0  0
 24 44  1  0  0  0
 25 45  1  0  0  0
M  END
> <s_m_entry_id>
52579

> <s_m_entry_name>
ligand_docking-pose.4

> <s_m_Source_Path>
/home/csk/Desktop/cluster/DUD-E-result/hdac2

> <s_m_Source_File>
ligand_docking-pose.sdf

> <i_m_Source_File_Index>
4

> <i_lp_mmshare_version>
53161

> <r_lp_tautomer_probability>
1

> <s_lp_Force_Field>
OPLS_2005

> <r_lp_Energy>
32.387249

> <b_lp_Chiralities_Consistent>
1

> <s_lp_Variant>
234673-1

> <s_i_glide_gridfile>
glide-grid_3max

> <i_i_glide_lignum>
205

> <i_i_glide_rotatable_bonds>
9

> <r_i_docking_score>
-9.64452627284363

> <r_i_glide_ligand_efficiency>
-0.385781050913745

> <r_i_glide_ligand_efficiency_sa>
-1.12803063472786

> <r_i_glide_ligand_efficiency_ln>
-2.2860417497936

> <r_i_glide_gscore>
-9.64452627284363

> <r_i_glide_lipo>
-2.97098238883522

> <r_i_glide_hbond>
-0.305761058568283

> <r_i_glide_metal>
-2.21422998091774

> <r_i_glide_rewards>
-1.42322218012437

> <r_i_glide_evdw>
-36.0248680114746

> <r_i_glide_ecoul>
-13.0505495071411

> <r_i_glide_erotb>
1.14416355974246

> <r_i_glide_esite>
-0.115668397495591

> <r_i_glide_emodel>
-64.0446512071448

> <r_i_glide_energy>
-49.0754175186157

> <r_i_glide_einternal>
12.0850601196289

> <i_i_glide_confnum>
27

> <i_i_glide_posenum>
5

> <r_i_glide_eff_state_penalty>
0

> <i_f3d_flags>
0

> <s_user_duplicate_titles>
234673

> <s_m_subgroup_title>
dock_pv

> <s_m_subgroupid>
dock_pv1

> <b_m_subgroup_collapsed>
0

$$$$
235551
                    3D
 Schrodinger Suite 2021-1.
 45 46  0  0  1  0            999 V2000
   72.6715   33.1697   -2.4092 C   0  0  0  0  0  0
   73.1074   32.1178   -1.6099 C   0  0  0  0  0  0
   72.1920   31.4239   -0.8216 C   0  0  0  0  0  0
   70.8408   31.7884   -0.8143 C   0  0  0  0  0  0
   70.4209   32.8647   -1.6058 C   0  0  0  0  0  0
   71.3327   33.5475   -2.4088 C   0  0  0  0  0  0
   69.9073   31.0261    0.1280 C   0  0  0  0  0  0
   68.3726   31.2001   -0.0158 C   0  0  0  0  0  0
   67.6882   30.0828   -0.8264 C   0  0  0  0  0  0
   66.2187   30.2006   -0.8162 N   0  0  1  0  0  0
   65.5542   28.8993   -0.7892 C   0  0  0  0  0  0
   65.1530   28.5151    0.6212 C   0  0  0  0  0  0
   63.9281   27.8787    0.8380 C   0  0  0  0  0  0
   63.4645   27.7147    2.1373 C   0  0  0  0  0  0
   64.2533   28.1150    3.2113 C   0  0  0  0  0  0
   65.5403   28.5953    2.9918 C   0  0  0  0  0  0
   65.9643   28.8400    1.7053 C   0  0  0  0  0  0
   63.7403   28.1152    4.5742 C   0  0  0  0  0  0
   62.4938   28.5022    4.9159 C   0  0  0  0  0  0
   62.0840   28.5150    6.2909 C   0  0  0  0  0  0
   62.8306   28.1177    7.1839 O   0  0  0  0  0  0
   60.8187   28.9146    6.4817 N   0  0  0  0  0  0
   60.3053   28.9150    7.7864 O   0  0  0  0  0  0
   73.3834   33.7053   -3.0204 H   0  0  0  0  0  0
   74.1479   31.8288   -1.6060 H   0  0  0  0  0  0
   72.5408   30.6112   -0.2016 H   0  0  0  0  0  0
   69.3972   33.1971   -1.6114 H   0  0  0  0  0  0
   71.0060   34.3800   -3.0154 H   0  0  0  0  0  0
   70.1956   31.3151    1.1389 H   0  0  0  0  0  0
   70.1503   29.9647    0.0686 H   0  0  0  0  0  0
   68.0758   32.1895   -0.3539 H   0  0  0  0  0  0
   67.9878   31.1318    1.0001 H   0  0  0  0  0  0
   68.0090   29.1394   -0.3873 H   0  0  0  0  0  0
   68.0731   30.0604   -1.8471 H   0  0  0  0  0  0
   65.9558   30.7475    0.0092 H   0  0  0  0  0  0
   66.2009   28.1149   -1.1931 H   0  0  0  0  0  0
   64.6609   28.9064   -1.4164 H   0  0  0  0  0  0
   63.3009   27.5914    0.0074 H   0  0  0  0  0  0
   62.4894   27.2915    2.3229 H   0  0  0  0  0  0
   66.2089   28.8417    3.8114 H   0  0  0  0  0  0
   66.9371   29.2828    1.5702 H   0  0  0  0  0  0
   64.4417   27.7857    5.3306 H   0  0  0  0  0  0
   61.7781   28.8165    4.1651 H   0  0  0  0  0  0
   60.1143   29.0862    5.7743 H   0  0  0  0  0  0
   59.8203   28.0781    7.8188 H   0  0  0  0  0  0
  1  6  1  0  0  0
  1  2  2  0  0  0
  1 24  1  0  0  0
  2  3  1  0  0  0
  2 25  1  0  0  0
  3  4  2  0  0  0
  3 26  1  0  0  0
  4  5  1  0  0  0
  4  7  1  0  0  0
  5  6  2  0  0  0
  5 27  1  0  0  0
  6 28  1  0  0  0
  7  8  1  0  0  0
  7 29  1  0  0  0
  7 30  1  0  0  0
  8  9  1  0  0  0
  8 31  1  0  0  0
  8 32  1  0  0  0
  9 10  1  0  0  0
  9 33  1  0  0  0
  9 34  1  0  0  0
 10 11  1  0  0  0
 10 35  1  0  0  0
 11 12  1  0  0  0
 11 36  1  0  0  0
 11 37  1  0  0  0
 12 17  1  0  0  0
 12 13  2  0  0  0
 13 14  1  0  0  0
 13 38  1  0  0  0
 14 15  2  0  0  0
 14 39  1  0  0  0
 15 16  1  0  0  0
 15 18  1  0  0  0
 16 17  2  0  0  0
 16 40  1  0  0  0
 17 41  1  0  0  0
 18 19  2  0  0  0
 18 42  1  0  0  0
 19 20  1  0  0  0
 19 43  1  0  0  0
 20 21  2  0  0  0
 20 22  1  0  0  0
 22 23  1  0  0  0
 22 44  1  0  0  0
 23 45  1  0  0  0
M  END
> <s_m_entry_id>
52584

> <s_m_entry_name>
ligand_docking-pose.9

> <s_m_Source_Path>
/home/csk/Desktop/cluster/DUD-E-result/hdac2

> <s_m_Source_File>
ligand_docking-pose.sdf

> <i_m_Source_File_Index>
9

> <i_lp_mmshare_version>
53161

> <r_lp_tautomer_probability>
1

> <s_lp_Force_Field>
OPLS_2005

> <r_lp_Energy>
21.63069

> <b_lp_Chiralities_Consistent>
1

> <s_lp_Variant>
235551-1

> <s_i_glide_gridfile>
glide-grid_3max

> <i_i_glide_lignum>
164

> <i_i_glide_rotatable_bonds>
10

> <r_i_docking_score>
-9.21093667555905

> <r_i_glide_ligand_efficiency>
-0.400475507633002

> <r_i_glide_ligand_efficiency_sa>
-1.13889907120645

> <r_i_glide_ligand_efficiency_ln>
-2.2272880083063

> <r_i_glide_gscore>
-9.21093667555905

> <r_i_glide_lipo>
-2.89056959086822

> <r_i_glide_hbond>
-0.305225775393998

> <r_i_glide_metal>
-2.21562366347556

> <r_i_glide_rewards>
-1.62676953897221

> <r_i_glide_evdw>
-33.1430244445801

> <r_i_glide_ecoul>
-12.9915609359741

> <r_i_glide_erotb>
1.53869002498758

> <r_i_glide_esite>
-0.105552769211515

> <r_i_glide_emodel>
-64.3427078737847

> <r_i_glide_energy>
-46.1345853805542

> <r_i_glide_einternal>
15.3395938873291

> <i_i_glide_confnum>
16

> <i_i_glide_posenum>
264

> <r_i_glide_eff_state_penalty>
0

> <i_f3d_flags>
0

> <s_user_duplicate_titles>
235551

> <s_m_subgroup_title>
dock_pv

> <s_m_subgroupid>
dock_pv1

> <b_m_subgroup_collapsed>
0

$$$$
185925
                    3D
 Schrodinger Suite 2021-1.
 48 49  0  0  1  0            999 V2000
   72.3066   38.2861   -3.4495 C   0  0  0  0  0  0
   71.8180   36.9327   -3.6765 N   0  0  0  0  0  0
   72.3051   35.8430   -3.0584 C   0  0  0  0  0  0
   73.2183   35.8272   -2.2325 O   0  0  0  0  0  0
   71.5749   34.5150   -3.5133 C   0  0  0  0  0  0
   70.4649   34.5151   -4.0482 O   0  0  0  0  0  0
   72.3618   33.2187   -3.2781 C   0  0  0  0  0  0
   72.1349   32.5734   -1.8937 C   0  0  0  0  0  0
   70.6904   32.0985   -1.6252 C   0  0  0  0  0  0
   70.5412   31.4483   -0.2377 C   0  0  0  0  0  0
   69.0872   31.1551    0.1846 C   0  0  0  0  0  0
   68.4705   29.9631   -0.5581 C   0  0  0  0  0  0
   66.9853   29.7000   -0.2679 C   0  0  0  0  0  0
   66.2180   29.7162   -1.2160 O   0  0  0  0  0  0
   66.6180   29.3150    0.9761 N   0  0  0  0  0  0
   65.4079   28.8072    1.4103 C   0  0  0  0  0  0
   65.0879   28.7958    2.6840 N   0  0  0  0  0  0
   63.9504   28.1576    2.9251 C   0  0  0  0  0  0
   63.4181   27.5542    1.8041 C   0  0  0  0  0  0
   64.3247   27.9218    0.3843 S   0  0  0  0  0  0
   63.3032   28.1553    4.2750 C   0  0  0  0  0  0
   61.9170   28.3294    4.3812 C   0  0  0  0  0  0
   61.3456   28.5150    5.6421 C   0  0  0  0  0  0
   62.0752   28.5217    6.7840 N   0  0  0  0  0  0
   63.4110   28.3111    6.6790 C   0  0  0  0  0  0
   64.0520   28.1150    5.4620 C   0  0  0  0  0  0
   71.5221   39.0078   -3.6786 H   0  0  0  0  0  0
   73.1593   38.4939   -4.0971 H   0  0  0  0  0  0
   72.6142   38.4391   -2.4136 H   0  0  0  0  0  0
   71.0596   36.8252   -4.3388 H   0  0  0  0  0  0
   72.0616   32.5156   -4.0527 H   0  0  0  0  0  0
   73.4247   33.4076   -3.4349 H   0  0  0  0  0  0
   72.8116   31.7222   -1.7973 H   0  0  0  0  0  0
   72.4400   33.2738   -1.1136 H   0  0  0  0  0  0
   70.0060   32.9452   -1.6964 H   0  0  0  0  0  0
   70.3914   31.3921   -2.4008 H   0  0  0  0  0  0
   71.1326   30.5319   -0.1930 H   0  0  0  0  0  0
   70.9861   32.1140    0.4987 H   0  0  0  0  0  0
   69.0948   30.9147    1.2432 H   0  0  0  0  0  0
   68.4758   32.0521    0.0671 H   0  0  0  0  0  0
   68.5829   30.1124   -1.6324 H   0  0  0  0  0  0
   69.0319   29.0554   -0.3389 H   0  0  0  0  0  0
   67.3646   29.2825    1.6608 H   0  0  0  0  0  0
   62.5639   26.9150    1.7654 H   0  0  0  0  0  0
   61.2897   28.3461    3.5032 H   0  0  0  0  0  0
   60.2762   28.6286    5.7525 H   0  0  0  0  0  0
   63.9931   28.3047    7.5840 H   0  0  0  0  0  0
   65.1237   27.9801    5.4326 H   0  0  0  0  0  0
  1  2  1  0  0  0
  1 27  1  0  0  0
  1 28  1  0  0  0
  1 29  1  0  0  0
  2  3  1  0  0  0
  2 30  1  0  0  0
  3  4  2  0  0  0
  3  5  1  0  0  0
  5  6  2  0  0  0
  5  7  1  0  0  0
  7  8  1  0  0  0
  7 31  1  0  0  0
  7 32  1  0  0  0
  8  9  1  0  0  0
  8 33  1  0  0  0
  8 34  1  0  0  0
  9 10  1  0  0  0
  9 35  1  0  0  0
  9 36  1  0  0  0
 10 11  1  0  0  0
 10 37  1  0  0  0
 10 38  1  0  0  0
 11 12  1  0  0  0
 11 39  1  0  0  0
 11 40  1  0  0  0
 12 13  1  0  0  0
 12 41  1  0  0  0
 12 42  1  0  0  0
 13 14  2  0  0  0
 13 15  1  0  0  0
 15 16  1  0  0  0
 15 43  1  0  0  0
 16 20  1  0  0  0
 16 17  2  0  0  0
 17 18  1  0  0  0
 18 19  2  0  0  0
 18 21  1  0  0  0
 19 20  1  0  0  0
 19 44  1  0  0  0
 21 26  1  0  0  0
 21 22  2  0  0  0
 22 23  1  0  0  0
 22 45  1  0  0  0
 23 24  2  0  0  0
 23 46  1  0  0  0
 24 25  1  0  0  0
 25 26  2  0  0  0
 25 47  1  0  0  0
 26 48  1  0  0  0
M  END
> <s_m_entry_id>
52586

> <s_m_entry_name>
ligand_docking-pose.11

> <s_m_Source_Path>
/home/csk/Desktop/cluster/DUD-E-result/hdac2

> <s_m_Source_File>
ligand_docking-pose.sdf

> <i_m_Source_File_Index>
11

> <i_lp_mmshare_version>
53161

> <r_lp_tautomer_probability>
0.998900643263219

> <s_lp_Force_Field>
OPLS_2005

> <r_lp_Energy>
8.152251

> <b_lp_Chiralities_Consistent>
1

> <s_lp_Variant>
185925-1

> <s_i_glide_gridfile>
glide-grid_3max

> <i_i_glide_lignum>
435

> <i_i_glide_rotatable_bonds>
12

> <r_i_docking_score>
-9.15173907248803

> <r_i_glide_ligand_efficiency>
-0.351989964326463

> <r_i_glide_ligand_efficiency_sa>
-1.04276888430352

> <r_i_glide_ligand_efficiency_ln>
-2.14925589186862

> <r_i_glide_gscore>
-9.15173907248803

> <r_i_glide_lipo>
-2.85062300083611

> <r_i_glide_hbond>
-0.719958569003967

> <r_i_glide_metal>
-2.3

> <r_i_glide_rewards>
-1.16413159101047

> <r_i_glide_evdw>
-25.5175037384033

> <r_i_glide_ecoul>
-14.5507888793945

> <r_i_glide_erotb>
1.51690122228737

> <r_i_glide_esite>
-0.175433615095505

> <r_i_glide_emodel>
-58.5751046382069

> <r_i_glide_energy>
-40.0682926177979

> <r_i_glide_einternal>
11.0037889480591

> <i_i_glide_confnum>
143

> <i_i_glide_posenum>
175

> <r_i_glide_eff_state_penalty>
0

> <i_f3d_flags>
0

> <s_user_duplicate_titles>
185925

> <s_m_subgroup_title>
dock_pv

> <s_m_subgroupid>
dock_pv1

> <b_m_subgroup_collapsed>
0

$$$$
87210
                    3D
 Schrodinger Suite 2021-1.
 47 48  0  0  1  0            999 V2000
   60.3991   28.2424    4.2601 C   0  0  0  0  0  0
   61.5275   28.1130    3.3976 O   0  0  0  0  0  0
   62.7885   28.1150    3.9389 C   0  0  0  0  0  0
   63.0326   28.1167    5.3227 C   0  0  0  0  0  0
   64.3227   28.1131    5.8228 C   0  0  0  0  0  0
   65.4155   28.1148    4.9580 C   0  0  0  0  0  0
   65.1857   28.2627    3.5840 C   0  0  0  0  0  0
   63.8847   28.1922    3.0364 C   0  0  0  0  0  0
   64.1018   28.2547    1.6089 C   0  0  0  0  0  0
   65.3765   28.7460    1.3662 C   0  0  0  0  0  0
   66.0401   28.6502    2.5662 N   0  0  0  0  0  0
   65.9256   29.2568    0.1189 C   0  0  0  0  0  0
   65.2393   29.3149   -0.9036 O   0  0  0  0  0  0
   67.1938   29.7150    0.1572 N   0  0  0  0  0  0
   67.9065   30.2348   -1.0064 C   0  0  0  0  0  0
   69.4369   30.1339   -0.9235 C   0  0  0  0  0  0
   70.0963   31.0980    0.0843 C   0  0  0  0  0  0
   71.6104   31.3193   -0.1484 C   0  0  0  0  0  0
   72.0018   32.0169   -1.4753 C   0  0  0  0  0  0
   71.4771   33.4692   -1.6201 C   0  0  0  0  0  0
   71.5857   34.0551   -3.0382 C   0  0  0  0  0  0
   71.4191   33.3293   -4.0214 O   0  0  0  0  0  0
   71.8176   35.3782   -3.1175 N   0  0  0  0  0  0
   71.8206   35.9852   -4.3853 O   0  0  0  0  0  0
   67.0333   28.8402    2.6447 H   0  0  0  0  0  0
   59.5163   28.5142    3.6811 H   0  0  0  0  0  0
   60.2148   27.3144    4.7840 H   0  0  0  0  0  0
   60.5122   29.0057    5.0231 H   0  0  0  0  0  0
   62.2285   28.1153    6.0413 H   0  0  0  0  0  0
   64.4818   28.1386    6.8914 H   0  0  0  0  0  0
   66.3378   28.3827    5.3776 H   0  0  0  0  0  0
   63.4082   28.1150    0.8061 H   0  0  0  0  0  0
   67.7701   29.4963    0.9613 H   0  0  0  0  0  0
   67.6183   31.2807   -1.1245 H   0  0  0  0  0  0
   67.5982   29.7149   -1.9132 H   0  0  0  0  0  0
   69.8116   30.3430   -1.9245 H   0  0  0  0  0  0
   69.7355   29.1052   -0.7179 H   0  0  0  0  0  0
   69.9454   30.7098    1.0926 H   0  0  0  0  0  0
   69.5825   32.0587    0.0743 H   0  0  0  0  0  0
   72.1181   30.3546   -0.1004 H   0  0  0  0  0  0
   72.0158   31.8966    0.6839 H   0  0  0  0  0  0
   71.6795   31.3999   -2.3142 H   0  0  0  0  0  0
   73.0913   32.0330   -1.5417 H   0  0  0  0  0  0
   71.9826   34.1138   -0.8990 H   0  0  0  0  0  0
   70.4161   33.5069   -1.3782 H   0  0  0  0  0  0
   71.9298   36.0359   -2.3589 H   0  0  0  0  0  0
   70.9807   36.4562   -4.4243 H   0  0  0  0  0  0
  1  2  1  0  0  0
  1 26  1  0  0  0
  1 27  1  0  0  0
  1 28  1  0  0  0
  2  3  1  0  0  0
  3  8  1  0  0  0
  3  4  2  0  0  0
  4  5  1  0  0  0
  4 29  1  0  0  0
  5  6  2  0  0  0
  5 30  1  0  0  0
  6  7  1  0  0  0
  6 31  1  0  0  0
  7 11  1  0  0  0
  7  8  2  0  0  0
  8  9  1  0  0  0
  9 10  2  0  0  0
  9 32  1  0  0  0
 10 11  1  0  0  0
 10 12  1  0  0  0
 11 25  1  0  0  0
 12 13  2  0  0  0
 12 14  1  0  0  0
 14 15  1  0  0  0
 14 33  1  0  0  0
 15 16  1  0  0  0
 15 34  1  0  0  0
 15 35  1  0  0  0
 16 17  1  0  0  0
 16 36  1  0  0  0
 16 37  1  0  0  0
 17 18  1  0  0  0
 17 38  1  0  0  0
 17 39  1  0  0  0
 18 19  1  0  0  0
 18 40  1  0  0  0
 18 41  1  0  0  0
 19 20  1  0  0  0
 19 42  1  0  0  0
 19 43  1  0  0  0
 20 21  1  0  0  0
 20 44  1  0  0  0
 20 45  1  0  0  0
 21 22  2  0  0  0
 21 23  1  0  0  0
 23 24  1  0  0  0
 23 46  1  0  0  0
 24 47  1  0  0  0
M  END
> <s_m_entry_id>
52588

> <s_m_entry_name>
ligand_docking-pose.13

> <s_m_Source_Path>
/home/csk/Desktop/cluster/DUD-E-result/hdac2

> <s_m_Source_File>
ligand_docking-pose.sdf

> <i_m_Source_File_Index>
13

> <i_lp_mmshare_version>
53161

> <r_lp_tautomer_probability>
1

> <s_lp_Force_Field>
OPLS_2005

> <r_lp_Energy>
16.739316

> <b_lp_Chiralities_Consistent>
1

> <s_lp_Variant>
87210-1

> <s_i_glide_gridfile>
glide-grid_3max

> <i_i_glide_lignum>
448

> <i_i_glide_rotatable_bonds>
12

> <r_i_docking_score>
-9.04743250580781

> <r_i_glide_ligand_efficiency>
-0.376976354408659

> <r_i_glide_ligand_efficiency_sa>
-1.08738796917196

> <r_i_glide_ligand_efficiency_ln>
-2.16546575826534

> <r_i_glide_gscore>
-9.04743250580781

> <r_i_glide_lipo>
-3.10258813151651

> <r_i_glide_hbond>
-0.794142872926392

> <r_i_glide_metal>
-2.3

> <r_i_glide_rewards>
-1.47752903328142

> <r_i_glide_evdw>
-17.2677898406982

> <r_i_glide_ecoul>
-13.8743553161621

> <r_i_glide_erotb>
1.69571382210122

> <r_i_glide_esite>
-0.124343500725474

> <r_i_glide_emodel>
-39.9073863534617

> <r_i_glide_energy>
-31.1421451568604

> <r_i_glide_einternal>
8.78350734710693

> <i_i_glide_confnum>
38

> <i_i_glide_posenum>
199

> <r_i_glide_eff_state_penalty>
0

> <i_f3d_flags>
0

> <s_user_duplicate_titles>
87210

> <s_m_subgroup_title>
dock_pv

> <s_m_subgroupid>
dock_pv1

> <b_m_subgroup_collapsed>
0

$$$$
236557
                    3D
 Schrodinger Suite 2021-1.
 47 47  0  0  1  0            999 V2000
   72.3794   34.0303   -0.6768 C   0  0  0  0  0  0
   72.2922   32.5751   -0.7980 N   0  0  0  0  0  0
   73.5262   31.8304   -0.5295 C   0  0  0  0  0  0
   71.0395   31.9110   -0.6799 C   0  0  0  0  0  0
   70.9610   30.5150   -0.6941 C   0  0  0  0  0  0
   69.7393   29.8539   -0.5980 C   0  0  0  0  0  0
   68.5594   30.5702   -0.4290 C   0  0  0  0  0  0
   68.6180   31.9630   -0.4160 C   0  0  0  0  0  0
   69.8362   32.6196   -0.5680 C   0  0  0  0  0  0
   67.2321   29.8676   -0.4160 C   0  0  0  0  0  0
   66.6180   29.7150   -1.4620 O   0  0  0  0  0  0
   66.7231   29.4815    0.7591 N   0  0  0  0  0  0
   65.3330   29.0836    0.9394 C   0  0  0  0  0  0
   65.0136   28.7042    2.3869 C   0  0  0  0  0  0
   63.5039   28.6947    2.6715 C   0  0  0  0  0  0
   63.1195   27.8797    3.9115 C   0  0  0  0  0  0
   61.9847   28.4168    4.8051 C   0  0  0  0  0  0
   62.4462   28.6494    6.2643 C   0  0  0  0  0  0
   61.4180   29.3150    7.1840 C   0  0  0  0  0  0
   61.4179   30.5423    7.2821 O   0  0  0  0  0  0
   60.6198   28.5150    7.9071 N   0  0  0  0  0  0
   59.8180   29.0946    8.8946 O   0  0  0  0  0  0
   71.6665   34.5276   -1.3342 H   0  0  0  0  0  0
   72.1672   34.3394    0.3473 H   0  0  0  0  0  0
   73.3724   34.3974   -0.9392 H   0  0  0  0  0  0
   73.5051   31.4235    0.4825 H   0  0  0  0  0  0
   73.6470   30.9922   -1.2160 H   0  0  0  0  0  0
   74.4155   32.4567   -0.6093 H   0  0  0  0  0  0
   71.8441   29.9077   -0.8159 H   0  0  0  0  0  0
   69.7172   28.7796   -0.6797 H   0  0  0  0  0  0
   67.7181   32.5512   -0.3530 H   0  0  0  0  0  0
   69.8228   33.6941   -0.5943 H   0  0  0  0  0  0
   67.3611   29.3670    1.5393 H   0  0  0  0  0  0
   65.0559   28.2668    0.2677 H   0  0  0  0  0  0
   64.7017   29.9266    0.6515 H   0  0  0  0  0  0
   65.5259   29.3579    3.0910 H   0  0  0  0  0  0
   65.4180   27.7150    2.5682 H   0  0  0  0  0  0
   63.0130   28.2509    1.8074 H   0  0  0  0  0  0
   63.1411   29.7150    2.7538 H   0  0  0  0  0  0
   64.0131   27.7150    4.5161 H   0  0  0  0  0  0
   62.7988   26.9150    3.5312 H   0  0  0  0  0  0
   61.1475   27.7152    4.7955 H   0  0  0  0  0  0
   61.5976   29.3150    4.3533 H   0  0  0  0  0  0
   63.3327   29.2845    6.2749 H   0  0  0  0  0  0
   62.7692   27.7150    6.7182 H   0  0  0  0  0  0
   60.5199   27.5075    7.8426 H   0  0  0  0  0  0
   60.2363   28.8214    9.7155 H   0  0  0  0  0  0
  1  2  1  0  0  0
  1 23  1  0  0  0
  1 24  1  0  0  0
  1 25  1  0  0  0
  2  3  1  0  0  0
  2  4  1  0  0  0
  3 26  1  0  0  0
  3 27  1  0  0  0
  3 28  1  0  0  0
  4  9  1  0  0  0
  4  5  2  0  0  0
  5  6  1  0  0  0
  5 29  1  0  0  0
  6  7  2  0  0  0
  6 30  1  0  0  0
  7  8  1  0  0  0
  7 10  1  0  0  0
  8  9  2  0  0  0
  8 31  1  0  0  0
  9 32  1  0  0  0
 10 11  2  0  0  0
 10 12  1  0  0  0
 12 13  1  0  0  0
 12 33  1  0  0  0
 13 14  1  0  0  0
 13 34  1  0  0  0
 13 35  1  0  0  0
 14 15  1  0  0  0
 14 36  1  0  0  0
 14 37  1  0  0  0
 15 16  1  0  0  0
 15 38  1  0  0  0
 15 39  1  0  0  0
 16 17  1  0  0  0
 16 40  1  0  0  0
 16 41  1  0  0  0
 17 18  1  0  0  0
 17 42  1  0  0  0
 17 43  1  0  0  0
 18 19  1  0  0  0
 18 44  1  0  0  0
 18 45  1  0  0  0
 19 20  2  0  0  0
 19 21  1  0  0  0
 21 22  1  0  0  0
 21 46  1  0  0  0
 22 47  1  0  0  0
M  END
> <s_m_entry_id>
52590

> <s_m_entry_name>
ligand_docking-pose.15

> <s_m_Source_Path>
/home/csk/Desktop/cluster/DUD-E-result/hdac2

> <s_m_Source_File>
ligand_docking-pose.sdf

> <i_m_Source_File_Index>
15

> <i_lp_mmshare_version>
53161

> <r_lp_tautomer_probability>
1

> <s_lp_Force_Field>
OPLS_2005

> <r_lp_Energy>
23.182467

> <b_lp_Chiralities_Consistent>
1

> <s_lp_Variant>
236557-1

> <s_i_glide_gridfile>
glide-grid_3max

> <i_i_glide_lignum>
415

> <i_i_glide_rotatable_bonds>
12

> <r_i_docking_score>
-9.03512147526735

> <r_i_glide_ligand_efficiency>
-0.410687339784879

> <r_i_glide_ligand_efficiency_sa>
-1.15076207749378

> <r_i_glide_ligand_efficiency_ln>
-2.20851325261865

> <r_i_glide_gscore>
-9.03512147526735

> <r_i_glide_lipo>
-3.19461579871095

> <r_i_glide_hbond>
-0.609546419585866

> <r_i_glide_metal>
-2.3

> <r_i_glide_rewards>
-1.59570294142172

> <r_i_glide_evdw>
-19.9944972991943

> <r_i_glide_ecoul>
-13.5696001052856

> <r_i_glide_erotb>
1.95645986344681

> <r_i_glide_esite>
-0.256551298243057

> <r_i_glide_emodel>
-43.2325775159423

> <r_i_glide_energy>
-33.56409740448

> <r_i_glide_einternal>
19.741361618042

> <i_i_glide_confnum>
205

> <i_i_glide_posenum>
255

> <r_i_glide_eff_state_penalty>
0

> <i_f3d_flags>
0

> <s_user_duplicate_titles>
236557

> <s_m_subgroup_title>
dock_pv

> <s_m_subgroupid>
dock_pv1

> <b_m_subgroup_collapsed>
0

$$$$
86300
                    3D
 Schrodinger Suite 2021-1.
 47 48  0  0  1  0            999 V2000
   64.0553   28.1150    5.3991 C   0  0  0  0  0  0
   65.2573   28.1147    4.6614 C   0  0  0  0  0  0
   65.1486   28.3655    3.2839 C   0  0  0  0  0  0
   63.9125   28.2773    2.6056 C   0  0  0  0  0  0
   62.7476   28.1150    3.3706 C   0  0  0  0  0  0
   62.8072   28.1984    4.7603 C   0  0  0  0  0  0
   61.5951   28.3882    5.3997 O   0  0  0  0  0  0
   61.5357   28.7406    6.7834 C   0  0  0  0  0  0
   60.2914   29.1392    7.0414 F   0  0  0  0  0  0
   61.8200   27.7150    7.5840 F   0  0  0  0  0  0
   62.3194   29.7813    7.0620 F   0  0  0  0  0  0
   64.2180   28.3902    1.2060 C   0  0  0  0  0  0
   65.5208   28.8470    1.0851 C   0  0  0  0  0  0
   66.0821   28.7459    2.3431 N   0  0  0  0  0  0
   66.2180   29.3145   -0.0980 C   0  0  0  0  0  0
   65.6993   29.3150   -1.2159 O   0  0  0  0  0  0
   67.4734   29.7150    0.1364 N   0  0  0  0  0  0
   68.4751   30.1889   -0.8039 C   0  0  0  0  0  0
   69.5519   31.0441   -0.0988 C   0  0  0  0  0  0
   69.4528   32.5449   -0.4366 C   0  0  0  0  0  0
   70.2225   32.9386   -1.7077 C   0  0  0  0  0  0
   71.6877   33.3579   -1.4448 C   0  0  0  0  0  0
   72.5506   33.6228   -2.7027 C   0  0  0  0  0  0
   71.9012   34.5289   -3.7583 C   0  0  0  0  0  0
   71.0179   34.0646   -4.4788 O   0  0  0  0  0  0
   72.3443   35.7953   -3.8378 N   0  0  0  0  0  0
   71.8236   36.6185   -4.8496 O   0  0  0  0  0  0
   67.0719   28.9035    2.4996 H   0  0  0  0  0  0
   64.1184   28.0979    6.4771 H   0  0  0  0  0  0
   66.2057   28.1196    5.1693 H   0  0  0  0  0  0
   61.7844   28.0527    2.9021 H   0  0  0  0  0  0
   63.5409   28.2675    0.3743 H   0  0  0  0  0  0
   67.8905   29.3952    1.0038 H   0  0  0  0  0  0
   68.0145   30.7377   -1.6160 H   0  0  0  0  0  0
   68.9530   29.3150   -1.2488 H   0  0  0  0  0  0
   70.5458   30.6700   -0.3508 H   0  0  0  0  0  0
   69.4870   30.9162    0.9838 H   0  0  0  0  0  0
   69.8328   33.1448    0.3840 H   0  0  0  0  0  0
   68.4031   32.8314   -0.5256 H   0  0  0  0  0  0
   69.6908   33.7632   -2.1842 H   0  0  0  0  0  0
   70.2170   32.1103   -2.4158 H   0  0  0  0  0  0
   72.1787   32.5816   -0.8553 H   0  0  0  0  0  0
   71.7059   34.2467   -0.8136 H   0  0  0  0  0  0
   72.7724   32.6716   -3.1876 H   0  0  0  0  0  0
   73.5211   34.0217   -2.4031 H   0  0  0  0  0  0
   73.0596   36.2445   -3.2838 H   0  0  0  0  0  0
   71.1269   37.1226   -4.4163 H   0  0  0  0  0  0
  1  6  1  0  0  0
  1  2  2  0  0  0
  1 29  1  0  0  0
  2  3  1  0  0  0
  2 30  1  0  0  0
  3 14  1  0  0  0
  3  4  2  0  0  0
  4  5  1  0  0  0
  4 12  1  0  0  0
  5  6  2  0  0  0
  5 31  1  0  0  0
  6  7  1  0  0  0
  7  8  1  0  0  0
  8  9  1  0  0  0
  8 10  1  0  0  0
  8 11  1  0  0  0
 12 13  2  0  0  0
 12 32  1  0  0  0
 13 14  1  0  0  0
 13 15  1  0  0  0
 14 28  1  0  0  0
 15 16  2  0  0  0
 15 17  1  0  0  0
 17 18  1  0  0  0
 17 33  1  0  0  0
 18 19  1  0  0  0
 18 34  1  0  0  0
 18 35  1  0  0  0
 19 20  1  0  0  0
 19 36  1  0  0  0
 19 37  1  0  0  0
 20 21  1  0  0  0
 20 38  1  0  0  0
 20 39  1  0  0  0
 21 22  1  0  0  0
 21 40  1  0  0  0
 21 41  1  0  0  0
 22 23  1  0  0  0
 22 42  1  0  0  0
 22 43  1  0  0  0
 23 24  1  0  0  0
 23 44  1  0  0  0
 23 45  1  0  0  0
 24 25  2  0  0  0
 24 26  1  0  0  0
 26 27  1  0  0  0
 26 46  1  0  0  0
 27 47  1  0  0  0
M  END
> <s_m_entry_id>
52593

> <s_m_entry_name>
ligand_docking-pose.18

> <s_m_Source_Path>
/home/csk/Desktop/cluster/DUD-E-result/hdac2

> <s_m_Source_File>
ligand_docking-pose.sdf

> <i_m_Source_File_Index>
18

> <i_lp_mmshare_version>
53161

> <r_lp_tautomer_probability>
1

> <s_lp_Force_Field>
OPLS_2005

> <r_lp_Energy>
14.16729

> <b_lp_Chiralities_Consistent>
1

> <s_lp_Variant>
86300-1

> <s_i_glide_gridfile>
glide-grid_3max

> <i_i_glide_lignum>
6

> <i_i_glide_rotatable_bonds>
13

> <r_i_docking_score>
-8.9297156557075

> <r_i_glide_ligand_efficiency>
-0.330730209470648

> <r_i_glide_ligand_efficiency_sa>
-0.992190627321912

> <r_i_glide_ligand_efficiency_ln>
-2.07869058678042

> <r_i_glide_gscore>
-8.9297156557075

> <r_i_glide_lipo>
-2.88420169463013

> <r_i_glide_hbond>
-0.841561835424284

> <r_i_glide_metal>
-2.3

> <r_i_glide_rewards>
-0.973196193294036

> <r_i_glide_evdw>
-13.9788808822632

> <r_i_glide_ecoul>
-15.4310340881348

> <r_i_glide_erotb>
1.42760143673235

> <r_i_glide_esite>
-0.344758211758038

> <r_i_glide_emodel>
-33.6614752436688

> <r_i_glide_energy>
-29.4099149703979

> <r_i_glide_einternal>
15.0757970809937

> <i_i_glide_confnum>
102

> <i_i_glide_posenum>
369

> <r_i_glide_eff_state_penalty>
0

> <i_f3d_flags>
0

> <s_user_duplicate_titles>
86300

> <s_m_subgroup_title>
dock_pv

> <s_m_subgroupid>
dock_pv1

> <b_m_subgroup_collapsed>
0

$$$$
209683
                    3D
 Schrodinger Suite 2021-1.
 43 45  0  0  1  0            999 V2000
   72.6981   32.9636   -1.1719 C   0  0  0  0  0  0
   73.1828   31.7261   -0.7600 C   0  0  0  0  0  0
   72.3300   30.6836   -0.4115 C   0  0  0  0  0  0
   70.9513   30.9301   -0.4563 C   0  0  0  0  0  0
   70.4373   32.2045   -0.8218 C   0  0  0  0  0  0
   71.3287   33.2118   -1.2197 C   0  0  0  0  0  0
   69.0170   32.1193   -0.6803 C   0  0  0  0  0  0
   68.6711   30.8038   -0.4077 C   0  0  0  0  0  0
   69.8518   30.1150   -0.2393 N   0  0  0  0  0  0
   67.3438   30.2262   -0.4154 C   0  0  0  0  0  0
   66.5147   30.6131   -1.2158 O   0  0  0  0  0  0
   67.0180   29.3161    0.5063 N   0  0  0  0  0  0
   65.8597   28.4193    0.4609 C   0  0  0  0  0  0
   64.5208   29.0725    0.7849 C   0  0  0  0  0  0
   64.1936   29.2024    2.2815 C   0  0  0  0  0  0
   63.6119   27.9320    2.9444 C   0  0  0  0  0  0
   62.5314   28.2022    4.0338 C   0  0  0  0  0  0
   63.0110   28.4533    5.4812 C   0  0  0  0  0  0
   64.1399   28.1139    5.8397 O   0  0  0  0  0  0
   62.1032   29.1030    6.4049 C   0  0  0  0  0  0
   60.8167   28.9139    6.5775 N   0  0  0  0  0  0
   60.5003   29.7261    7.5681 C   0  0  0  0  0  0
   61.5796   30.5145    7.9223 C   0  0  0  0  0  0
   62.6180   30.0875    7.1837 O   0  0  0  0  0  0
   69.8578   29.1287   -0.0297 H   0  0  0  0  0  0
   73.3960   33.7370   -1.4558 H   0  0  0  0  0  0
   74.2523   31.5612   -0.7282 H   0  0  0  0  0  0
   72.7532   29.7312   -0.1408 H   0  0  0  0  0  0
   70.9689   34.1608   -1.5790 H   0  0  0  0  0  0
   68.3058   32.9156   -0.8145 H   0  0  0  0  0  0
   67.7379   29.0595    1.1850 H   0  0  0  0  0  0
   66.0367   27.6054    1.1622 H   0  0  0  0  0  0
   65.8136   27.9325   -0.5175 H   0  0  0  0  0  0
   63.7311   28.5168    0.2769 H   0  0  0  0  0  0
   64.5383   30.0654    0.3451 H   0  0  0  0  0  0
   63.4558   29.9925    2.3841 H   0  0  0  0  0  0
   65.0884   29.5435    2.7933 H   0  0  0  0  0  0
   64.4270   27.3152    3.3221 H   0  0  0  0  0  0
   63.1345   27.3166    2.1792 H   0  0  0  0  0  0
   61.8605   27.3476    4.0652 H   0  0  0  0  0  0
   61.8937   29.0240    3.7176 H   0  0  0  0  0  0
   59.5120   29.7226    7.9942 H   0  0  0  0  0  0
   61.8177   31.2731    8.6479 H   0  0  0  0  0  0
  1  6  1  0  0  0
  1  2  2  0  0  0
  1 26  1  0  0  0
  2  3  1  0  0  0
  2 27  1  0  0  0
  3  4  2  0  0  0
  3 28  1  0  0  0
  4  9  1  0  0  0
  4  5  1  0  0  0
  5  6  2  0  0  0
  5  7  1  0  0  0
  6 29  1  0  0  0
  7  8  2  0  0  0
  7 30  1  0  0  0
  8  9  1  0  0  0
  8 10  1  0  0  0
  9 25  1  0  0  0
 10 11  2  0  0  0
 10 12  1  0  0  0
 12 13  1  0  0  0
 12 31  1  0  0  0
 13 14  1  0  0  0
 13 32  1  0  0  0
 13 33  1  0  0  0
 14 15  1  0  0  0
 14 34  1  0  0  0
 14 35  1  0  0  0
 15 16  1  0  0  0
 15 36  1  0  0  0
 15 37  1  0  0  0
 16 17  1  0  0  0
 16 38  1  0  0  0
 16 39  1  0  0  0
 17 18  1  0  0  0
 17 40  1  0  0  0
 17 41  1  0  0  0
 18 19  2  0  0  0
 18 20  1  0  0  0
 20 24  1  0  0  0
 20 21  2  0  0  0
 21 22  1  0  0  0
 22 23  2  0  0  0
 22 42  1  0  0  0
 23 24  1  0  0  0
 23 43  1  0  0  0
M  END
> <s_m_entry_id>
52594

> <s_m_entry_name>
ligand_docking-pose.19

> <s_m_Source_Path>
/home/csk/Desktop/cluster/DUD-E-result/hdac2

> <s_m_Source_File>
ligand_docking-pose.sdf

> <i_m_Source_File_Index>
19

> <i_lp_mmshare_version>
53161

> <r_lp_tautomer_probability>
0.99990000499975

> <s_lp_Force_Field>
OPLS_2005

> <r_lp_Energy>
7.466013

> <b_lp_Chiralities_Consistent>
1

> <s_lp_Variant>
209683-1

> <s_i_glide_gridfile>
glide-grid_3max

> <i_i_glide_lignum>
48

> <i_i_glide_rotatable_bonds>
9

> <r_i_docking_score>
-8.91363233616473

> <r_i_glide_ligand_efficiency>
-0.371401347340197

> <r_i_glide_ligand_efficiency_sa>
-1.07130686609109

> <r_i_glide_ligand_efficiency_ln>
-2.13344123798003

> <r_i_glide_gscore>
-8.91363233616473

> <r_i_glide_lipo>
-2.93861727033855

> <r_i_glide_hbond>
-0.392995960646954

> <r_i_glide_metal>
-2.3

> <r_i_glide_rewards>
-1.7484129479406

> <r_i_glide_evdw>
-20.3303146362305

> <r_i_glide_ecoul>
-10.5867738723755

> <r_i_glide_erotb>
1.23919362759328

> <r_i_glide_esite>
-0.168267972164065

> <r_i_glide_emodel>
-37.3212122073891

> <r_i_glide_energy>
-30.917088508606

> <r_i_glide_einternal>
16.3879947662354

> <i_i_glide_confnum>
12

> <i_i_glide_posenum>
203

> <r_i_glide_eff_state_penalty>
0

> <i_f3d_flags>
0

> <s_user_duplicate_titles>
209683

> <s_m_subgroup_title>
dock_pv

> <s_m_subgroupid>
dock_pv1

> <b_m_subgroup_collapsed>
0

$$$$
190305
                    3D
 Schrodinger Suite 2021-1.
 45 46  0  0  1  0            999 V2000
   61.8635   28.5150    6.8050 C   0  0  0  0  0  0
   61.1147   28.5150    5.6325 C   0  0  0  0  0  0
   61.7586   28.3666    4.4086 C   0  0  0  0  0  0
   63.1456   28.1945    4.3601 C   0  0  0  0  0  0
   63.8736   28.1150    5.5490 C   0  0  0  0  0  0
   63.2386   28.2889    6.7635 C   0  0  0  0  0  0
   63.8360   28.1156    3.0446 C   0  0  0  0  0  0
   63.2915   27.4647    1.9706 C   0  0  0  0  0  0
   64.2181   27.7150    0.5379 S   0  0  0  0  0  0
   65.3301   28.6149    1.5244 C   0  0  0  0  0  0
   65.0053   28.6827    2.7876 N   0  0  0  0  0  0
   66.5443   29.0714    1.0517 N   0  0  0  0  0  0
   66.7375   29.7150   -0.1089 C   0  0  0  0  0  0
   65.8180   30.1150   -0.8160 O   0  0  0  0  0  0
   68.1908   29.9165   -0.5501 C   0  0  0  0  0  0
   68.7845   31.3046   -0.2557 C   0  0  0  0  0  0
   70.3278   31.2457   -0.2075 C   0  0  0  0  0  0
   71.0328   32.5762   -0.5151 C   0  0  0  0  0  0
   71.0180   32.9461   -2.0083 C   0  0  0  0  0  0
   71.8290   34.2220   -2.3119 C   0  0  0  0  0  0
   71.8859   34.6015   -3.8008 C   0  0  0  0  0  0
   71.4180   33.8622   -4.6716 O   0  0  0  0  0  0
   72.5426   35.9486   -4.1440 C   0  0  0  0  0  0
   71.8180   36.9355   -3.6160 F   0  0  0  0  0  0
   72.6180   36.1151   -5.4653 F   0  0  0  0  0  0
   73.7719   35.9832   -3.6292 F   0  0  0  0  0  0
   61.3642   28.6242    7.7566 H   0  0  0  0  0  0
   60.0405   28.6287    5.6703 H   0  0  0  0  0  0
   61.1707   28.3876    3.5041 H   0  0  0  0  0  0
   64.9409   27.9460    5.5276 H   0  0  0  0  0  0
   63.8473   28.2126    7.6423 H   0  0  0  0  0  0
   62.3675   26.9150    1.9840 H   0  0  0  0  0  0
   67.3596   28.9150    1.6372 H   0  0  0  0  0  0
   68.2688   29.7150   -1.6184 H   0  0  0  0  0  0
   68.8090   29.1608   -0.0663 H   0  0  0  0  0  0
   68.4172   31.6956    0.6946 H   0  0  0  0  0  0
   68.4437   32.0050   -1.0169 H   0  0  0  0  0  0
   70.7041   30.4900   -0.9005 H   0  0  0  0  0  0
   70.6293   30.9018    0.7837 H   0  0  0  0  0  0
   72.0678   32.5076   -0.1751 H   0  0  0  0  0  0
   70.5738   33.3709    0.0676 H   0  0  0  0  0  0
   69.9894   33.0867   -2.3402 H   0  0  0  0  0  0
   71.4167   32.1104   -2.5876 H   0  0  0  0  0  0
   72.8529   34.0823   -1.9632 H   0  0  0  0  0  0
   71.4180   35.0616   -1.7509 H   0  0  0  0  0  0
  1  6  1  0  0  0
  1  2  2  0  0  0
  1 27  1  0  0  0
  2  3  1  0  0  0
  2 28  1  0  0  0
  3  4  2  0  0  0
  3 29  1  0  0  0
  4  5  1  0  0  0
  4  7  1  0  0  0
  5  6  2  0  0  0
  5 30  1  0  0  0
  6 31  1  0  0  0
  7 11  1  0  0  0
  7  8  2  0  0  0
  8  9  1  0  0  0
  8 32  1  0  0  0
  9 10  1  0  0  0
 10 11  2  0  0  0
 10 12  1  0  0  0
 12 13  1  0  0  0
 12 33  1  0  0  0
 13 14  2  0  0  0
 13 15  1  0  0  0
 15 16  1  0  0  0
 15 34  1  0  0  0
 15 35  1  0  0  0
 16 17  1  0  0  0
 16 36  1  0  0  0
 16 37  1  0  0  0
 17 18  1  0  0  0
 17 38  1  0  0  0
 17 39  1  0  0  0
 18 19  1  0  0  0
 18 40  1  0  0  0
 18 41  1  0  0  0
 19 20  1  0  0  0
 19 42  1  0  0  0
 19 43  1  0  0  0
 20 21  1  0  0  0
 20 44  1  0  0  0
 20 45  1  0  0  0
 21 22  2  0  0  0
 21 23  1  0  0  0
 23 24  1  0  0  0
 23 25  1  0  0  0
 23 26  1  0  0  0
M  END
> <s_m_entry_id>
52596

> <s_m_entry_name>
ligand_docking-pose.21

> <s_m_Source_Path>
/home/csk/Desktop/cluster/DUD-E-result/hdac2

> <s_m_Source_File>
ligand_docking-pose.sdf

> <i_m_Source_File_Index>
21

> <i_lp_mmshare_version>
53161

> <r_lp_tautomer_probability>
0.998900643263219

> <s_lp_Force_Field>
OPLS_2005

> <r_lp_Energy>
14.259572

> <b_lp_Chiralities_Consistent>
1

> <s_lp_Variant>
190305-1

> <s_i_glide_gridfile>
glide-grid_3max

> <i_i_glide_lignum>
126

> <i_i_glide_rotatable_bonds>
11

> <r_i_docking_score>
-8.80840857264243

> <r_i_glide_ligand_efficiency>
-0.338784945101632

> <r_i_glide_ligand_efficiency_sa>
-1.0036490668092

> <r_i_glide_ligand_efficiency_ln>
-2.06862585053913

> <r_i_glide_gscore>
-8.80840857264243

> <r_i_glide_lipo>
-2.71892546434266

> <r_i_glide_hbond>
-0.567583099115557

> <r_i_glide_metal>
-2.3

> <r_i_glide_rewards>
-1.24751643410344

> <r_i_glide_evdw>
-22.7160205841064

> <r_i_glide_ecoul>
-13.2288837432861

> <r_i_glide_erotb>
1.315662174736

> <r_i_glide_esite>
-0.169912159118532

> <r_i_glide_emodel>
-49.9955847569805

> <r_i_glide_energy>
-35.9449043273926

> <r_i_glide_einternal>
11.851674079895

> <i_i_glide_confnum>
52

> <i_i_glide_posenum>
319

> <r_i_glide_eff_state_penalty>
0

> <i_f3d_flags>
0

> <s_user_duplicate_titles>
190305

> <s_m_subgroup_title>
dock_pv

> <s_m_subgroupid>
dock_pv1

> <b_m_subgroup_collapsed>
0

$$$$
210746
                    3D
 Schrodinger Suite 2021-1.
 42 43  0  0  1  0            999 V2000
   70.6418   30.5149   -0.6684 C   0  0  0  0  0  0
   71.6143   31.3439   -1.2160 C   0  0  0  0  0  0
   71.2777   32.6417   -1.5891 C   0  0  0  0  0  0
   69.9864   33.1201   -1.3859 C   0  0  0  0  0  0
   69.0181   32.2981   -0.8160 C   0  0  0  0  0  0
   69.3410   30.9798   -0.4884 C   0  0  0  0  0  0
   68.4146   30.1167    0.1019 N   0  0  0  0  0  0
   67.1309   29.9134   -0.2216 C   0  0  0  0  0  0
   66.6179   30.4052   -1.2160 O   0  0  0  0  0  0
   66.2702   29.0848    0.7604 C   0  0  0  0  0  0
   64.9076   28.6420    0.1699 C   0  0  0  0  0  0
   64.0470   27.7641    1.1005 C   0  0  0  0  0  0
   63.8179   28.3874    2.4927 C   0  0  0  0  0  0
   62.6179   27.8183    3.2708 C   0  0  0  0  0  0
   62.6107   28.3139    4.7413 C   0  0  0  0  0  0
   61.2409   28.5150    5.4073 C   0  0  0  0  0  0
   60.2180   28.2263    4.7879 O   0  0  0  0  0  0
   61.2086   29.2077    6.6976 C   0  0  0  0  0  0
   60.2180   29.3149    7.5534 N   0  0  0  0  0  0
   60.6043   30.2642    8.3840 C   0  0  0  0  0  0
   61.8180   30.7898    7.9981 C   0  0  0  0  0  0
   62.2377   30.0543    6.9512 O   0  0  0  0  0  0
   72.4626   33.6621   -2.3161 Cl  0  0  0  0  0  0
   70.9020   29.4991   -0.4160 H   0  0  0  0  0  0
   72.6177   30.9720   -1.3682 H   0  0  0  0  0  0
   69.7314   34.1274   -1.6720 H   0  0  0  0  0  0
   68.0221   32.6791   -0.6430 H   0  0  0  0  0  0
   68.7579   29.5532    0.8779 H   0  0  0  0  0  0
   66.0834   29.7184    1.6235 H   0  0  0  0  0  0
   66.8062   28.2329    1.1813 H   0  0  0  0  0  0
   65.0683   28.1125   -0.7693 H   0  0  0  0  0  0
   64.3257   29.5263   -0.0887 H   0  0  0  0  0  0
   64.5094   26.7822    1.2040 H   0  0  0  0  0  0
   63.0887   27.5855    0.6108 H   0  0  0  0  0  0
   63.6722   29.4628    2.3842 H   0  0  0  0  0  0
   64.7268   28.2618    3.0839 H   0  0  0  0  0  0
   62.6203   26.7333    3.1964 H   0  0  0  0  0  0
   61.6955   28.1150    2.7840 H   0  0  0  0  0  0
   63.0180   29.3150    4.7359 H   0  0  0  0  0  0
   63.2602   27.7151    5.3781 H   0  0  0  0  0  0
   60.0045   30.5671    9.2302 H   0  0  0  0  0  0
   62.4877   31.5460    8.3839 H   0  0  0  0  0  0
  1  6  1  0  0  0
  1  2  2  0  0  0
  1 24  1  0  0  0
  2  3  1  0  0  0
  2 25  1  0  0  0
  3  4  2  0  0  0
  3 23  1  0  0  0
  4  5  1  0  0  0
  4 26  1  0  0  0
  5  6  2  0  0  0
  5 27  1  0  0  0
  6  7  1  0  0  0
  7  8  1  0  0  0
  7 28  1  0  0  0
  8  9  2  0  0  0
  8 10  1  0  0  0
 10 11  1  0  0  0
 10 29  1  0  0  0
 10 30  1  0  0  0
 11 12  1  0  0  0
 11 31  1  0  0  0
 11 32  1  0  0  0
 12 13  1  0  0  0
 12 33  1  0  0  0
 12 34  1  0  0  0
 13 14  1  0  0  0
 13 35  1  0  0  0
 13 36  1  0  0  0
 14 15  1  0  0  0
 14 37  1  0  0  0
 14 38  1  0  0  0
 15 16  1  0  0  0
 15 39  1  0  0  0
 15 40  1  0  0  0
 16 17  2  0  0  0
 16 18  1  0  0  0
 18 22  1  0  0  0
 18 19  2  0  0  0
 19 20  1  0  0  0
 20 21  2  0  0  0
 20 41  1  0  0  0
 21 22  1  0  0  0
 21 42  1  0  0  0
M  END
> <s_m_entry_id>
52597

> <s_m_entry_name>
ligand_docking-pose.22

> <s_m_Source_Path>
/home/csk/Desktop/cluster/DUD-E-result/hdac2

> <s_m_Source_File>
ligand_docking-pose.sdf

> <i_m_Source_File_Index>
22

> <i_lp_mmshare_version>
53161

> <r_lp_tautomer_probability>
0.99990000499975

> <s_lp_Force_Field>
OPLS_2005

> <r_lp_Energy>
13.418398

> <b_lp_Chiralities_Consistent>
1

> <s_lp_Variant>
210746-1

> <s_i_glide_gridfile>
glide-grid_3max

> <i_i_glide_lignum>
239

> <i_i_glide_rotatable_bonds>
10

> <r_i_docking_score>
-8.7911382801573

> <r_i_glide_ligand_efficiency>
-0.3822234034851

> <r_i_glide_ligand_efficiency_sa>
-1.08699251496167

> <r_i_glide_ligand_efficiency_ln>
-2.12577694977676

> <r_i_glide_gscore>
-8.7911382801573

> <r_i_glide_lipo>
-3.10930009930986

> <r_i_glide_hbond>
-0.479242908801676

> <r_i_glide_metal>
-2.3

> <r_i_glide_rewards>
-1.55430625010727

> <r_i_glide_evdw>
-29.5115699768066

> <r_i_glide_ecoul>
-6.92048788070679

> <r_i_glide_erotb>
1.3464425787001

> <r_i_glide_esite>
-0.181079919692243

> <r_i_glide_emodel>
-51.0614355318887

> <r_i_glide_energy>
-36.4320578575134

> <r_i_glide_einternal>
12.1315431594849

> <i_i_glide_confnum>
3

> <i_i_glide_posenum>
204

> <r_i_glide_eff_state_penalty>
0

> <i_f3d_flags>
0

> <s_user_duplicate_titles>
210746

> <s_m_subgroup_title>
dock_pv

> <s_m_subgroupid>
dock_pv1

> <b_m_subgroup_collapsed>
0

$$$$
434441
                    3D
 Schrodinger Suite 2021-1.
 19 20  0  0  1  0            999 V2000
   65.6687   29.0392    2.3137 C   0  0  0  0  0  0
   66.0915   29.2558    1.0105 C   0  0  0  0  0  0
   65.3683   28.7113   -0.0370 C   0  0  0  0  0  0
   64.2277   27.9471    0.2139 C   0  0  0  0  0  0
   63.8180   27.7150    1.5276 C   0  0  0  0  0  0
   64.5362   28.2687    2.5882 C   0  0  0  0  0  0
   64.1420   28.1150    4.0010 C   0  0  0  0  0  0
   62.9187   28.4389    4.4789 C   0  0  0  0  0  0
   62.7460   28.5150    5.8957 C   0  0  0  0  0  0
   61.4095   28.9150    6.7840 S   0  0  0  0  0  0
   64.2180   28.1152    6.7587 S   0  0  0  0  0  0
   65.4180   27.7150    5.1840 S   0  0  0  0  0  0
   65.8180   28.9150   -1.3155 O   0  0  0  0  0  0
   66.2180   29.4883    3.1233 H   0  0  0  0  0  0
   66.9830   29.8367    0.8200 H   0  0  0  0  0  0
   63.6699   27.5207   -0.6076 H   0  0  0  0  0  0
   62.9485   27.1059    1.7210 H   0  0  0  0  0  0
   62.0939   28.7151    3.8385 H   0  0  0  0  0  0
   66.2812   28.1150   -1.6219 H   0  0  0  0  0  0
  1  6  1  0  0  0
  1  2  2  0  0  0
  1 14  1  0  0  0
  2  3  1  0  0  0
  2 15  1  0  0  0
  3  4  2  0  0  0
  3 13  1  0  0  0
  4  5  1  0  0  0
  4 16  1  0  0  0
  5  6  2  0  0  0
  5 17  1  0  0  0
  6  7  1  0  0  0
  7 12  1  0  0  0
  7  8  2  0  0  0
  8  9  1  0  0  0
  8 18  1  0  0  0
  9 10  2  0  0  0
  9 11  1  0  0  0
 11 12  1  0  0  0
 13 19  1  0  0  0
M  END
> <s_m_entry_id>
52598

> <s_m_entry_name>
ligand_docking-pose.23

> <s_m_Source_Path>
/home/csk/Desktop/cluster/DUD-E-result/hdac2

> <s_m_Source_File>
ligand_docking-pose.sdf

> <i_m_Source_File_Index>
23

> <i_lp_mmshare_version>
53161

> <r_lp_tautomer_probability>
0.999999999997365

> <s_lp_Force_Field>
OPLS_2005

> <r_lp_Energy>
14.331629

> <b_lp_Chiralities_Consistent>
1

> <s_lp_Variant>
434441-1

> <s_i_glide_gridfile>
glide-grid_3max

> <i_i_glide_lignum>
117

> <i_i_glide_rotatable_bonds>
2

> <r_i_docking_score>
-8.77124569157461

> <r_i_glide_ligand_efficiency>
-0.674711207044201

> <r_i_glide_ligand_efficiency_sa>
-1.58647186396057

> <r_i_glide_ligand_efficiency_ln>
-2.46041242443351

> <r_i_glide_gscore>
-8.77124569157461

> <r_i_glide_lipo>
-2.07663160436547

> <r_i_glide_hbond>
-0.372687539387329

> <r_i_glide_metal>
-2.24503847851722

> <r_i_glide_rewards>
-2.17418783333333

> <r_i_glide_evdw>
-12.7781448364258

> <r_i_glide_ecoul>
-10.1114330291748

> <r_i_glide_erotb>
0.331688266964618

> <r_i_glide_esite>
-0.0787663067383711

> <r_i_glide_emodel>
-22.4359385870031

> <r_i_glide_energy>
-22.8895778656006

> <r_i_glide_einternal>
5.024817943573

> <i_i_glide_confnum>
2

> <i_i_glide_posenum>
244

> <r_i_glide_eff_state_penalty>
0

> <i_f3d_flags>
0

> <s_user_duplicate_titles>
434441

> <s_m_subgroup_title>
dock_pv

> <s_m_subgroupid>
dock_pv1

> <b_m_subgroup_collapsed>
0

$$$$
238264
                    3D
 Schrodinger Suite 2021-1.
 46 47  0  0  1  0            999 V2000
   73.3005   32.1150   -1.4069 C   0  0  0  0  0  0
   72.3713   32.8190   -2.1689 C   0  0  0  0  0  0
   71.0181   32.7330   -1.8542 C   0  0  0  0  0  0
   70.5933   31.9417   -0.7826 C   0  0  0  0  0  0
   71.5354   31.2495   -0.0160 C   0  0  0  0  0  0
   72.8884   31.3308   -0.3323 C   0  0  0  0  0  0
   69.1133   31.9123   -0.4163 C   0  0  0  0  0  0
   68.5208   30.5305   -0.0164 C   0  0  0  0  0  0
   67.3544   30.0553   -0.9286 C   0  0  0  0  0  0
   66.0856   29.5151   -0.2569 C   0  0  0  0  0  0
   65.0180   29.7150   -0.8160 O   0  0  0  0  0  0
   66.2181   28.9151    0.9273 N   0  0  0  0  0  0
   65.2653   28.6065    1.8928 C   0  0  0  0  0  0
   63.9078   28.3464    1.6895 C   0  0  0  0  0  0
   63.0865   28.1153    2.7998 C   0  0  0  0  0  0
   63.6267   28.1150    4.0837 C   0  0  0  0  0  0
   65.0157   28.1150    4.2313 C   0  0  0  0  0  0
   65.8050   28.5150    3.1596 C   0  0  0  0  0  0
   62.7256   28.0497    5.3231 C   0  0  0  0  0  0
   62.6720   29.3150    6.1814 C   0  0  0  0  0  0
   61.5154   29.4714    7.1841 C   0  0  0  0  0  0
   61.1434   30.6100    7.4800 O   0  0  0  0  0  0
   61.0180   28.3686    7.7661 N   0  0  0  0  0  0
   60.0504   28.5155    8.7752 O   0  0  0  0  0  0
   74.3525   32.1805   -1.6441 H   0  0  0  0  0  0
   72.7011   33.4335   -2.9935 H   0  0  0  0  0  0
   70.3030   33.2973   -2.4332 H   0  0  0  0  0  0
   71.2279   30.6659    0.8389 H   0  0  0  0  0  0
   73.6185   30.8001    0.2621 H   0  0  0  0  0  0
   68.9753   32.6284    0.3840 H   0  0  0  0  0  0
   68.5399   32.3648   -1.2160 H   0  0  0  0  0  0
   69.2864   29.7533   -0.0161 H   0  0  0  0  0  0
   68.2066   30.6073    1.0254 H   0  0  0  0  0  0
   67.0184   30.9063   -1.5114 H   0  0  0  0  0  0
   67.7128   29.3239   -1.6475 H   0  0  0  0  0  0
   67.1730   28.8256    1.2559 H   0  0  0  0  0  0
   63.4838   28.3609    0.6970 H   0  0  0  0  0  0
   62.0217   27.9943    2.6854 H   0  0  0  0  0  0
   65.4689   27.9860    5.2040 H   0  0  0  0  0  0
   66.8755   28.5149    3.2348 H   0  0  0  0  0  0
   61.7254   27.7154    5.0394 H   0  0  0  0  0  0
   63.1581   27.3150    5.9866 H   0  0  0  0  0  0
   63.6073   29.4490    6.7284 H   0  0  0  0  0  0
   62.6180   30.1179    5.4787 H   0  0  0  0  0  0
   61.2401   27.4011    7.5711 H   0  0  0  0  0  0
   59.2509   28.1847    8.3582 H   0  0  0  0  0  0
  1  6  1  0  0  0
  1  2  2  0  0  0
  1 25  1  0  0  0
  2  3  1  0  0  0
  2 26  1  0  0  0
  3  4  2  0  0  0
  3 27  1  0  0  0
  4  5  1  0  0  0
  4  7  1  0  0  0
  5  6  2  0  0  0
  5 28  1  0  0  0
  6 29  1  0  0  0
  7  8  1  0  0  0
  7 30  1  0  0  0
  7 31  1  0  0  0
  8  9  1  0  0  0
  8 32  1  0  0  0
  8 33  1  0  0  0
  9 10  1  0  0  0
  9 34  1  0  0  0
  9 35  1  0  0  0
 10 11  2  0  0  0
 10 12  1  0  0  0
 12 13  1  0  0  0
 12 36  1  0  0  0
 13 18  1  0  0  0
 13 14  2  0  0  0
 14 15  1  0  0  0
 14 37  1  0  0  0
 15 16  2  0  0  0
 15 38  1  0  0  0
 16 17  1  0  0  0
 16 19  1  0  0  0
 17 18  2  0  0  0
 17 39  1  0  0  0
 18 40  1  0  0  0
 19 20  1  0  0  0
 19 41  1  0  0  0
 19 42  1  0  0  0
 20 21  1  0  0  0
 20 43  1  0  0  0
 20 44  1  0  0  0
 21 22  2  0  0  0
 21 23  1  0  0  0
 23 24  1  0  0  0
 23 45  1  0  0  0
 24 46  1  0  0  0
M  END
> <s_m_entry_id>
52601

> <s_m_entry_name>
ligand_docking-pose.26

> <s_m_Source_Path>
/home/csk/Desktop/cluster/DUD-E-result/hdac2

> <s_m_Source_File>
ligand_docking-pose.sdf

> <i_m_Source_File_Index>
26

> <i_lp_mmshare_version>
53161

> <r_lp_tautomer_probability>
1

> <s_lp_Force_Field>
OPLS_2005

> <r_lp_Energy>
29.691743

> <b_lp_Chiralities_Consistent>
1

> <s_lp_Variant>
238264-1

> <s_i_glide_gridfile>
glide-grid_3max

> <i_i_glide_lignum>
158

> <i_i_glide_rotatable_bonds>
11

> <r_i_docking_score>
-8.54875067598615

> <r_i_glide_ligand_efficiency>
-0.356197944832756

> <r_i_glide_ligand_efficiency_sa>
-1.02745266467042

> <r_i_glide_ligand_efficiency_ln>
-2.04610831337092

> <r_i_glide_gscore>
-8.54875067598615

> <r_i_glide_lipo>
-2.57472209923808

> <r_i_glide_hbond>
-0.484457686690006

> <r_i_glide_metal>
-2.3

> <r_i_glide_rewards>
-1.50758116673013

> <r_i_glide_evdw>
-20.34348487854

> <r_i_glide_ecoul>
-13.5524463653564

> <r_i_glide_erotb>
1.58440325299491

> <r_i_glide_esite>
-0.216351777592377

> <r_i_glide_emodel>
-38.2316665753677

> <r_i_glide_energy>
-33.8959312438965

> <r_i_glide_einternal>
18.254581451416

> <i_i_glide_confnum>
8

> <i_i_glide_posenum>
126

> <r_i_glide_eff_state_penalty>
0

> <i_f3d_flags>
0

> <s_user_duplicate_titles>
238264

> <s_m_subgroup_title>
dock_pv

> <s_m_subgroupid>
dock_pv1

> <b_m_subgroup_collapsed>
0

$$$$
185690
                    3D
 Schrodinger Suite 2021-1.
 49 50  0  0  1  0            999 V2000
   73.4790   34.9695   -6.0160 C   0  0  0  0  0  0
   73.3451   35.0762   -4.5703 N   0  0  0  0  0  0
   72.4088   34.4503   -3.8381 C   0  0  0  0  0  0
   71.5149   33.7150   -4.2680 O   0  0  0  0  0  0
   72.5837   34.7463   -2.2881 C   0  0  0  0  0  0
   73.2880   35.6640   -1.8607 O   0  0  0  0  0  0
   71.8198   33.7999   -1.3561 C   0  0  0  0  0  0
   72.3961   32.3637   -1.3186 C   0  0  0  0  0  0
   71.3795   31.3156   -0.8341 C   0  0  0  0  0  0
   70.2372   31.0882   -1.8448 C   0  0  0  0  0  0
   69.2273   30.0081   -1.4239 C   0  0  0  0  0  0
   68.2906   30.4866   -0.2963 C   0  0  0  0  0  0
   66.9474   29.7493   -0.2205 C   0  0  0  0  0  0
   66.2180   29.7150   -1.2160 O   0  0  0  0  0  0
   66.6180   29.3150    1.0108 N   0  0  0  0  0  0
   65.4344   28.7420    1.4428 C   0  0  0  0  0  0
   65.0941   28.7526    2.7127 N   0  0  0  0  0  0
   63.9394   28.1422    2.9442 C   0  0  0  0  0  0
   63.4180   27.5314    1.8222 C   0  0  0  0  0  0
   64.3557   27.8596    0.4120 S   0  0  0  0  0  0
   63.2638   28.1692    4.2830 C   0  0  0  0  0  0
   61.8769   28.3380    4.3542 C   0  0  0  0  0  0
   61.2452   28.5150    5.5838 C   0  0  0  0  0  0
   61.9995   28.5150    6.7531 C   0  0  0  0  0  0
   63.3757   28.3047    6.6984 C   0  0  0  0  0  0
   63.9989   28.1150    5.4747 C   0  0  0  0  0  0
   74.5337   34.9516   -6.2911 H   0  0  0  0  0  0
   73.0181   35.8326   -6.4958 H   0  0  0  0  0  0
   73.0180   34.0627   -6.4094 H   0  0  0  0  0  0
   74.0124   35.6608   -4.0853 H   0  0  0  0  0  0
   71.8180   34.2163   -0.3487 H   0  0  0  0  0  0
   70.7836   33.8041   -1.6891 H   0  0  0  0  0  0
   72.7680   32.0516   -2.2966 H   0  0  0  0  0  0
   73.2656   32.3490   -0.6584 H   0  0  0  0  0  0
   71.9019   30.3713   -0.6694 H   0  0  0  0  0  0
   70.9783   31.6118    0.1365 H   0  0  0  0  0  0
   69.7056   32.0213   -2.0160 H   0  0  0  0  0  0
   70.6567   30.8317   -2.8160 H   0  0  0  0  0  0
   68.6546   29.7150   -2.3051 H   0  0  0  0  0  0
   69.7567   29.1066   -1.1109 H   0  0  0  0  0  0
   68.8187   30.4736    0.6590 H   0  0  0  0  0  0
   68.0288   31.5333   -0.4573 H   0  0  0  0  0  0
   67.3379   29.4042    1.7172 H   0  0  0  0  0  0
   62.5471   26.9150    1.7801 H   0  0  0  0  0  0
   61.2803   28.3515    3.4550 H   0  0  0  0  0  0
   60.1715   28.6308    5.6291 H   0  0  0  0  0  0
   61.5018   28.6388    7.7035 H   0  0  0  0  0  0
   63.9831   28.2779    7.5840 H   0  0  0  0  0  0
   65.0696   27.9698    5.4455 H   0  0  0  0  0  0
  1  2  1  0  0  0
  1 27  1  0  0  0
  1 28  1  0  0  0
  1 29  1  0  0  0
  2  3  1  0  0  0
  2 30  1  0  0  0
  3  4  2  0  0  0
  3  5  1  0  0  0
  5  6  2  0  0  0
  5  7  1  0  0  0
  7  8  1  0  0  0
  7 31  1  0  0  0
  7 32  1  0  0  0
  8  9  1  0  0  0
  8 33  1  0  0  0
  8 34  1  0  0  0
  9 10  1  0  0  0
  9 35  1  0  0  0
  9 36  1  0  0  0
 10 11  1  0  0  0
 10 37  1  0  0  0
 10 38  1  0  0  0
 11 12  1  0  0  0
 11 39  1  0  0  0
 11 40  1  0  0  0
 12 13  1  0  0  0
 12 41  1  0  0  0
 12 42  1  0  0  0
 13 14  2  0  0  0
 13 15  1  0  0  0
 15 16  1  0  0  0
 15 43  1  0  0  0
 16 20  1  0  0  0
 16 17  2  0  0  0
 17 18  1  0  0  0
 18 19  2  0  0  0
 18 21  1  0  0  0
 19 20  1  0  0  0
 19 44  1  0  0  0
 21 26  1  0  0  0
 21 22  2  0  0  0
 22 23  1  0  0  0
 22 45  1  0  0  0
 23 24  2  0  0  0
 23 46  1  0  0  0
 24 25  1  0  0  0
 24 47  1  0  0  0
 25 26  2  0  0  0
 25 48  1  0  0  0
 26 49  1  0  0  0
M  END
> <s_m_entry_id>
52602

> <s_m_entry_name>
ligand_docking-pose.27

> <s_m_Source_Path>
/home/csk/Desktop/cluster/DUD-E-result/hdac2

> <s_m_Source_File>
ligand_docking-pose.sdf

> <i_m_Source_File_Index>
27

> <i_lp_mmshare_version>
53161

> <r_lp_tautomer_probability>
0.998900643263219

> <s_lp_Force_Field>
OPLS_2005

> <r_lp_Energy>
12.353736

> <b_lp_Chiralities_Consistent>
1

> <s_lp_Variant>
185690-1

> <s_i_glide_gridfile>
glide-grid_3max

> <i_i_glide_lignum>
432

> <i_i_glide_rotatable_bonds>
12

> <r_i_docking_score>
-8.51632339220369

> <r_i_glide_ligand_efficiency>
-0.327550899700142

> <r_i_glide_ligand_efficiency_sa>
-0.970368251511117

> <r_i_glide_ligand_efficiency_ln>
-2.00003060432275

> <r_i_glide_gscore>
-8.51632339220369

> <r_i_glide_lipo>
-2.61577700997656

> <r_i_glide_hbond>
-0.467613888568224

> <r_i_glide_metal>
-2.3

> <r_i_glide_rewards>
-1.27103530390755

> <r_i_glide_evdw>
-24.6001815795898

> <r_i_glide_ecoul>
-13.2002182006836

> <r_i_glide_erotb>
1.52408828122334

> <r_i_glide_esite>
-0.175943661892667

> <r_i_glide_emodel>
-56.5228557951523

> <r_i_glide_energy>
-37.8003997802734

> <r_i_glide_einternal>
9.12328052520752

> <i_i_glide_confnum>
90

> <i_i_glide_posenum>
231

> <r_i_glide_eff_state_penalty>
0

> <i_f3d_flags>
0

> <s_user_duplicate_titles>
185690

> <s_m_subgroup_title>
dock_pv

> <s_m_subgroupid>
dock_pv1

> <b_m_subgroup_collapsed>
0

$$$$
184208
                    3D
 Schrodinger Suite 2021-1.
 45 46  0  0  1  0            999 V2000
   62.2986   28.5158    6.6490 C   0  0  0  0  0  0
   63.6714   28.2962    6.5597 C   0  0  0  0  0  0
   64.2584   28.1112    5.3081 C   0  0  0  0  0  0
   63.4935   28.1657    4.1241 C   0  0  0  0  0  0
   62.1100   28.3386    4.2592 C   0  0  0  0  0  0
   61.5136   28.5150    5.5047 C   0  0  0  0  0  0
   64.1087   28.1655    2.7484 C   0  0  0  0  0  0
   63.4184   27.5255    1.7238 C   0  0  0  0  0  0
   63.8227   27.6212    0.3947 C   0  0  0  0  0  0
   64.9824   28.3166    0.0773 C   0  0  0  0  0  0
   65.7479   28.9237    1.0770 C   0  0  0  0  0  0
   65.2992   28.8460    2.4115 C   0  0  0  0  0  0
   67.0071   29.4974    0.7819 N   0  0  0  0  0  0
   67.4030   30.0896   -0.3667 C   0  0  0  0  0  0
   66.6171   30.4966   -1.2125 O   0  0  0  0  0  0
   68.9048   30.1963   -0.6623 C   0  0  0  0  0  0
   69.4348   31.6437   -0.6580 C   0  0  0  0  0  0
   70.7726   31.7768   -1.4065 C   0  0  0  0  0  0
   71.2279   33.2358   -1.5865 C   0  0  0  0  0  0
   72.5508   33.3499   -2.3707 C   0  0  0  0  0  0
   72.9383   34.7871   -2.7569 C   0  0  0  0  0  0
   71.8187   35.4485   -4.0258 S   0  0  0  0  0  0
   61.8162   28.6562    7.6072 H   0  0  0  0  0  0
   64.2811   28.2659    7.4479 H   0  0  0  0  0  0
   65.3292   27.9613    5.2481 H   0  0  0  0  0  0
   61.4784   28.3718    3.3879 H   0  0  0  0  0  0
   60.4431   28.6348    5.5829 H   0  0  0  0  0  0
   62.5653   26.9165    1.9811 H   0  0  0  0  0  0
   63.2692   27.1026   -0.3771 H   0  0  0  0  0  0
   65.3160   28.3016   -0.9526 H   0  0  0  0  0  0
   65.8752   29.3123    3.1937 H   0  0  0  0  0  0
   67.7425   29.3149    1.4685 H   0  0  0  0  0  0
   69.0369   29.7646   -1.6585 H   0  0  0  0  0  0
   69.4930   29.5640   -0.0046 H   0  0  0  0  0  0
   69.5513   31.9911    0.3725 H   0  0  0  0  0  0
   68.7067   32.3046   -1.1243 H   0  0  0  0  0  0
   70.6787   31.3150   -2.3931 H   0  0  0  0  0  0
   71.5370   31.2036   -0.8822 H   0  0  0  0  0  0
   71.3393   33.7129   -0.6104 H   0  0  0  0  0  0
   70.4369   33.7884   -2.0997 H   0  0  0  0  0  0
   72.4962   32.7395   -3.2743 H   0  0  0  0  0  0
   73.3518   32.9183   -1.7674 H   0  0  0  0  0  0
   73.9592   34.8131   -3.1496 H   0  0  0  0  0  0
   72.9251   35.4432   -1.8839 H   0  0  0  0  0  0
   72.2397   34.6486   -5.0107 H   0  0  0  0  0  0
  1  6  1  0  0  0
  1  2  2  0  0  0
  1 23  1  0  0  0
  2  3  1  0  0  0
  2 24  1  0  0  0
  3  4  2  0  0  0
  3 25  1  0  0  0
  4  5  1  0  0  0
  4  7  1  0  0  0
  5  6  2  0  0  0
  5 26  1  0  0  0
  6 27  1  0  0  0
  7 12  1  0  0  0
  7  8  2  0  0  0
  8  9  1  0  0  0
  8 28  1  0  0  0
  9 10  2  0  0  0
  9 29  1  0  0  0
 10 11  1  0  0  0
 10 30  1  0  0  0
 11 12  2  0  0  0
 11 13  1  0  0  0
 12 31  1  0  0  0
 13 14  1  0  0  0
 13 32  1  0  0  0
 14 15  2  0  0  0
 14 16  1  0  0  0
 16 17  1  0  0  0
 16 33  1  0  0  0
 16 34  1  0  0  0
 17 18  1  0  0  0
 17 35  1  0  0  0
 17 36  1  0  0  0
 18 19  1  0  0  0
 18 37  1  0  0  0
 18 38  1  0  0  0
 19 20  1  0  0  0
 19 39  1  0  0  0
 19 40  1  0  0  0
 20 21  1  0  0  0
 20 41  1  0  0  0
 20 42  1  0  0  0
 21 22  1  0  0  0
 21 43  1  0  0  0
 21 44  1  0  0  0
 22 45  1  0  0  0
M  END
> <s_m_entry_id>
52603

> <s_m_entry_name>
ligand_docking-pose.28

> <s_m_Source_Path>
/home/csk/Desktop/cluster/DUD-E-result/hdac2

> <s_m_Source_File>
ligand_docking-pose.sdf

> <i_m_Source_File_Index>
28

> <i_lp_mmshare_version>
53161

> <r_lp_tautomer_probability>
1

> <s_lp_Force_Field>
OPLS_2005

> <r_lp_Energy>
18.710409

> <b_lp_Chiralities_Consistent>
1

> <s_lp_Variant>
184208-1

> <s_i_glide_gridfile>
glide-grid_3max

> <i_i_glide_lignum>
105

> <i_i_glide_rotatable_bonds>
10

> <r_i_docking_score>
-8.44418531504991

> <r_i_glide_ligand_efficiency>
-0.383826605229541

> <r_i_glide_ligand_efficiency_sa>
-1.07549724289698

> <r_i_glide_ligand_efficiency_ln>
-2.06406690014134

> <r_i_glide_gscore>
-8.44418531504991

> <r_i_glide_lipo>
-3.4746254859423

> <r_i_glide_hbond>
-0.298191703244877

> <r_i_glide_metal>
-2.3

> <r_i_glide_rewards>
-1.6128019238972

> <r_i_glide_evdw>
-12.8218030929565

> <r_i_glide_ecoul>
-11.088472366333

> <r_i_glide_erotb>
1.70136614752681

> <r_i_glide_esite>
-0.155571339894564

> <r_i_glide_emodel>
-32.4818189699516

> <r_i_glide_energy>
-23.9102754592896

> <r_i_glide_einternal>
9.25245475769043

> <i_i_glide_confnum>
44

> <i_i_glide_posenum>
138

> <r_i_glide_eff_state_penalty>
0

> <i_f3d_flags>
0

> <s_user_duplicate_titles>
184208

> <s_m_subgroup_title>
dock_pv

> <s_m_subgroupid>
dock_pv1

> <b_m_subgroup_collapsed>
0

$$$$
246902
                    3D
 Schrodinger Suite 2021-1.
 44 45  0  0  1  0            999 V2000
   71.7850   32.9546   -1.6065 C   0  0  0  0  0  0
   72.4061   31.7371   -1.3082 C   0  0  0  0  0  0
   71.6537   30.6682   -0.8158 C   0  0  0  0  0  0
   70.2936   30.8552   -0.5992 C   0  0  0  0  0  0
   69.6836   32.0716   -0.8171 C   0  0  0  0  0  0
   70.4167   33.1223   -1.3724 C   0  0  0  0  0  0
   68.2611   31.9517   -0.3837 C   0  0  0  0  0  0
   68.2051   30.5138    0.1986 C   0  0  2  0  0  0
   69.4227   29.8762   -0.2012 O   0  0  0  0  0  0
   66.9590   29.7153   -0.2665 C   0  0  0  0  0  0
   66.6180   29.7150   -1.4456 O   0  0  0  0  0  0
   66.2049   29.0870    0.6494 N   0  0  0  0  0  0
   64.9183   28.4713    0.3030 C   0  0  0  0  0  0
   64.1665   27.8549    1.4834 C   0  0  0  0  0  0
   63.9865   28.7985    2.6839 C   0  0  0  0  0  0
   63.4981   28.0417    3.9310 C   0  0  0  0  0  0
   62.5061   28.7799    4.8399 C   0  0  0  0  0  0
   62.7182   28.6159    6.3603 C   0  0  0  0  0  0
   61.6156   29.2985    7.1840 C   0  0  0  0  0  0
   61.5942   30.5245    7.2488 O   0  0  0  0  0  0
   60.7540   28.5149    7.8499 N   0  0  0  0  0  0
   59.8196   29.1142    8.7096 O   0  0  0  0  0  0
   72.3658   33.7688   -2.0145 H   0  0  0  0  0  0
   73.4645   31.6103   -1.4844 H   0  0  0  0  0  0
   72.1273   29.7158   -0.6319 H   0  0  0  0  0  0
   69.9499   34.0656   -1.6172 H   0  0  0  0  0  0
   67.5797   32.0908   -1.2156 H   0  0  0  0  0  0
   68.0526   32.6918    0.3838 H   0  0  0  0  0  0
   68.2142   30.5324    1.2880 H   0  0  0  0  0  0
   66.5605   28.9539    1.5856 H   0  0  0  0  0  0
   65.0773   27.7144   -0.4609 H   0  0  0  0  0  0
   64.2846   29.2488   -0.1278 H   0  0  0  0  0  0
   64.6433   26.9291    1.7883 H   0  0  0  0  0  0
   63.1837   27.5351    1.1339 H   0  0  0  0  0  0
   63.3104   29.5964    2.3886 H   0  0  0  0  0  0
   64.9287   29.2899    2.9252 H   0  0  0  0  0  0
   64.3718   27.7153    4.4984 H   0  0  0  0  0  0
   63.0006   27.1388    3.5838 H   0  0  0  0  0  0
   61.4867   28.5099    4.5543 H   0  0  0  0  0  0
   62.6180   29.8236    4.6268 H   0  0  0  0  0  0
   63.6672   29.0715    6.6479 H   0  0  0  0  0  0
   62.8185   27.5765    6.6524 H   0  0  0  0  0  0
   60.6774   27.5049    7.8165 H   0  0  0  0  0  0
   60.1468   28.8974    9.5869 H   0  0  0  0  0  0
  1  6  1  0  0  0
  1  2  2  0  0  0
  1 23  1  0  0  0
  2  3  1  0  0  0
  2 24  1  0  0  0
  3  4  2  0  0  0
  3 25  1  0  0  0
  4  9  1  0  0  0
  4  5  1  0  0  0
  5  6  2  0  0  0
  5  7  1  0  0  0
  6 26  1  0  0  0
  7  8  1  0  0  0
  7 27  1  0  0  0
  7 28  1  0  0  0
  8  9  1  0  0  0
  8 10  1  0  0  0
  8 29  1  0  0  0
 10 11  2  0  0  0
 10 12  1  0  0  0
 12 13  1  0  0  0
 12 30  1  0  0  0
 13 14  1  0  0  0
 13 31  1  0  0  0
 13 32  1  0  0  0
 14 15  1  0  0  0
 14 33  1  0  0  0
 14 34  1  0  0  0
 15 16  1  0  0  0
 15 35  1  0  0  0
 15 36  1  0  0  0
 16 17  1  0  0  0
 16 37  1  0  0  0
 16 38  1  0  0  0
 17 18  1  0  0  0
 17 39  1  0  0  0
 17 40  1  0  0  0
 18 19  1  0  0  0
 18 41  1  0  0  0
 18 42  1  0  0  0
 19 20  2  0  0  0
 19 21  1  0  0  0
 21 22  1  0  0  0
 21 43  1  0  0  0
 22 44  1  0  0  0
M  END
> <s_m_entry_id>
52604

> <s_m_entry_name>
ligand_docking-pose.29

> <s_m_Source_Path>
/home/csk/Desktop/cluster/DUD-E-result/hdac2

> <s_m_Source_File>
ligand_docking-pose.sdf

> <i_m_Source_File_Index>
29

> <i_lp_mmshare_version>
53161

> <r_lp_tautomer_probability>
1

> <s_lp_Force_Field>
OPLS_2005

> <r_lp_Energy>
20.758505

> <b_lp_Chiralities_Consistent>
1

> <s_lp_Variant>
246902-2

> <s_i_glide_gridfile>
glide-grid_3max

> <i_i_glide_lignum>
55

> <i_i_glide_rotatable_bonds>
11

> <r_i_docking_score>
-8.39308849408134

> <r_i_glide_ligand_efficiency>
-0.381504022458243

> <r_i_glide_ligand_efficiency_sa>
-1.0689892746298

> <r_i_glide_ligand_efficiency_ln>
-2.05157697329479

> <r_i_glide_gscore>
-8.39308849408134

> <r_i_glide_lipo>
-2.71454526501566

> <r_i_glide_hbond>
-0.323346729430343

> <r_i_glide_metal>
-2.3

> <r_i_glide_rewards>
-1.73674180401837

> <r_i_glide_evdw>
-24.2395191192627

> <r_i_glide_ecoul>
-11.1855964660645

> <r_i_glide_erotb>
1.77122339014624

> <r_i_glide_esite>
-0.199862659890402

> <r_i_glide_emodel>
-47.5955720453206

> <r_i_glide_energy>
-35.4251155853271

> <r_i_glide_einternal>
10.8523645401001

> <i_i_glide_confnum>
5

> <i_i_glide_posenum>
132

> <r_i_glide_eff_state_penalty>
0

> <i_f3d_flags>
0

> <s_user_duplicate_titles>
246902

> <s_m_subgroup_title>
dock_pv

> <s_m_subgroupid>
dock_pv1

> <b_m_subgroup_collapsed>
0

$$$$
37111
                    3D
 Schrodinger Suite 2021-1.
 44 46  0  0  1  0            999 V2000
   61.4942   28.5145    6.3470 C   0  0  0  0  0  0
   60.9802   28.4091    5.0568 C   0  0  0  0  0  0
   61.8420   28.1809    3.9840 C   0  0  0  0  0  0
   63.2289   28.1248    4.1654 C   0  0  0  0  0  0
   63.7033   28.1204    5.4949 C   0  0  0  0  0  0
   62.8541   28.3340    6.5713 C   0  0  0  0  0  0
   64.1788   28.1508    2.9919 C   0  0  0  0  0  0
   63.8172   27.8194    1.6783 C   0  0  0  0  0  0
   64.6227   28.1931    0.5934 C   0  0  0  0  0  0
   65.8039   28.9268    0.8010 C   0  0  0  0  0  0
   66.2067   29.1529    2.1119 C   0  0  0  0  0  0
   65.4488   28.6949    3.1712 C   0  0  0  0  0  0
   66.6295   29.4512   -0.3547 C   0  0  0  0  0  0
   66.2236   29.3063   -1.5047 O   0  0  0  0  0  0
   67.8512   29.9787   -0.0743 N   0  0  0  0  0  0
   68.9396   30.1159   -1.0572 C   0  0  0  0  0  0
   70.1092   31.0392   -0.7293 C   0  0  0  0  0  0
   71.3411   30.4751   -0.4157 C   0  0  0  0  0  0
   72.4671   31.2510   -0.1910 C   0  0  0  0  0  0
   72.4043   32.6368   -0.3641 C   0  0  0  0  0  0
   71.1947   33.1933   -0.8059 C   0  0  0  0  0  0
   70.0428   32.4152   -0.9431 C   0  0  0  0  0  0
   73.6002   33.5273   -0.0836 C   0  0  0  0  0  0
   73.5212   34.7454   -0.2703 O   0  0  0  0  0  0
   74.7119   32.9184    0.3839 N   0  0  0  0  0  0
   75.7993   33.7119    0.7824 O   0  0  0  0  0  0
   60.8227   28.6586    7.1816 H   0  0  0  0  0  0
   59.9134   28.4753    4.8900 H   0  0  0  0  0  0
   61.4149   28.1147    2.9971 H   0  0  0  0  0  0
   64.7529   27.9856    5.7102 H   0  0  0  0  0  0
   63.2597   28.3207    7.5702 H   0  0  0  0  0  0
   62.8893   27.3130    1.4872 H   0  0  0  0  0  0
   64.2919   27.9528   -0.4078 H   0  0  0  0  0  0
   67.0921   29.7169    2.3480 H   0  0  0  0  0  0
   65.8186   28.9124    4.1530 H   0  0  0  0  0  0
   68.1640   29.8908    0.8844 H   0  0  0  0  0  0
   68.5711   30.4220   -2.0192 H   0  0  0  0  0  0
   69.3506   29.1175   -1.2223 H   0  0  0  0  0  0
   71.4460   29.4036   -0.4186 H   0  0  0  0  0  0
   73.3831   30.7470    0.0842 H   0  0  0  0  0  0
   71.1488   34.2403   -1.0451 H   0  0  0  0  0  0
   69.1181   32.8747   -1.2579 H   0  0  0  0  0  0
   74.8503   31.9360    0.6025 H   0  0  0  0  0  0
   75.8676   33.5333    1.7286 H   0  0  0  0  0  0
  1  6  1  0  0  0
  1  2  2  0  0  0
  1 27  1  0  0  0
  2  3  1  0  0  0
  2 28  1  0  0  0
  3  4  2  0  0  0
  3 29  1  0  0  0
  4  5  1  0  0  0
  4  7  1  0  0  0
  5  6  2  0  0  0
  5 30  1  0  0  0
  6 31  1  0  0  0
  7 12  1  0  0  0
  7  8  2  0  0  0
  8  9  1  0  0  0
  8 32  1  0  0  0
  9 10  2  0  0  0
  9 33  1  0  0  0
 10 11  1  0  0  0
 10 13  1  0  0  0
 11 12  2  0  0  0
 11 34  1  0  0  0
 12 35  1  0  0  0
 13 14  2  0  0  0
 13 15  1  0  0  0
 15 16  1  0  0  0
 15 36  1  0  0  0
 16 17  1  0  0  0
 16 37  1  0  0  0
 16 38  1  0  0  0
 17 22  1  0  0  0
 17 18  2  0  0  0
 18 19  1  0  0  0
 18 39  1  0  0  0
 19 20  2  0  0  0
 19 40  1  0  0  0
 20 21  1  0  0  0
 20 23  1  0  0  0
 21 22  2  0  0  0
 21 41  1  0  0  0
 22 42  1  0  0  0
 23 24  2  0  0  0
 23 25  1  0  0  0
 25 26  1  0  0  0
 25 43  1  0  0  0
 26 44  1  0  0  0
M  END
> <s_m_entry_id>
52608

> <s_m_entry_name>
ligand_docking-pose.33

> <s_m_Source_Path>
/home/csk/Desktop/cluster/DUD-E-result/hdac2

> <s_m_Source_File>
ligand_docking-pose.sdf

> <i_m_Source_File_Index>
33

> <i_lp_mmshare_version>
53161

> <r_lp_tautomer_probability>
1

> <s_lp_Force_Field>
OPLS_2005

> <r_lp_Energy>
29.486301

> <b_lp_Chiralities_Consistent>
1

> <s_lp_Variant>
37111-1

> <s_i_glide_gridfile>
glide-grid_3max

> <i_i_glide_lignum>
92

> <i_i_glide_rotatable_bonds>
8

> <r_i_docking_score>
-8.22899123242901

> <r_i_glide_ligand_efficiency>
-0.316499662785731

> <r_i_glide_ligand_efficiency_sa>
-0.937629005636692

> <r_i_glide_ligand_efficiency_ln>
-1.93255158941338

> <r_i_glide_gscore>
-8.22899123242901

> <r_i_glide_lipo>
-2.85095280502494

> <r_i_glide_hbond>
-0.111162985521371

> <r_i_glide_metal>
-2.3

> <r_i_glide_rewards>
-1.30976140470087

> <r_i_glide_evdw>
-15.3126726150513

> <r_i_glide_ecoul>
-12.1088953018188

> <r_i_glide_erotb>
1.10919607852795

> <r_i_glide_esite>
-0.18434218968439

> <r_i_glide_emodel>
-36.8984672328067

> <r_i_glide_energy>
-27.4215679168701

> <r_i_glide_einternal>
4.38486814498901

> <i_i_glide_confnum>
6

> <i_i_glide_posenum>
199

> <r_i_glide_eff_state_penalty>
0

> <i_f3d_flags>
0

> <s_user_duplicate_titles>
37111

> <s_m_subgroup_title>
dock_pv

> <s_m_subgroupid>
dock_pv1

> <b_m_subgroup_collapsed>
0

$$$$
87103
                    3D
 Schrodinger Suite 2021-1.
 49 50  0  0  1  0            999 V2000
   63.6419   27.2255    0.3845 C   0  0  0  0  0  0
   64.1331   28.3113    1.3431 C   0  0  1  0  0  0
   63.8320   28.1550    2.8378 C   0  0  0  0  0  0
   62.6240   28.1150    3.5455 C   0  0  0  0  0  0
   62.6180   28.1362    4.9411 C   0  0  0  0  0  0
   63.8161   28.1150    5.6555 C   0  0  0  0  0  0
   65.0294   28.0936    4.9599 C   0  0  0  0  0  0
   65.0191   28.1938    3.5614 C   0  0  0  0  0  0
   66.1367   28.6464    2.6555 C   0  0  0  0  0  0
   65.6581   28.3499    1.2282 C   0  0  2  0  0  0
   66.1495   29.3150    0.1063 C   0  0  0  0  0  0
   65.4181   29.7128   -0.8160 O   0  0  0  0  0  0
   67.4183   29.7151    0.1906 N   0  0  0  0  0  0
   68.0563   30.6836   -0.6929 C   0  0  0  0  0  0
   69.4228   31.1689   -0.1812 C   0  0  0  0  0  0
   70.5994   30.3898   -0.7961 C   0  0  0  0  0  0
   71.9889   30.8066   -0.2804 C   0  0  0  0  0  0
   72.3444   32.2835   -0.5569 C   0  0  0  0  0  0
   73.8048   32.6471   -0.2161 C   0  0  0  0  0  0
   74.8204   32.1302   -1.2423 C   0  0  0  0  0  0
   74.8263   32.5921   -2.3862 O   0  0  0  0  0  0
   75.6806   31.1934   -0.8160 N   0  0  0  0  0  0
   76.7536   30.8630   -1.6547 O   0  0  0  0  0  0
   62.6180   27.3243    0.1004 H   0  0  0  0  0  0
   64.1604   27.3150   -0.5641 H   0  0  0  0  0  0
   63.8180   26.2237    0.7738 H   0  0  0  0  0  0
   63.7706   29.2899    1.0535 H   0  0  0  0  0  0
   61.6709   28.0877    3.0518 H   0  0  0  0  0  0
   61.6749   28.1318    5.4691 H   0  0  0  0  0  0
   63.8080   28.1150    6.7361 H   0  0  0  0  0  0
   65.9407   28.1483    5.5232 H   0  0  0  0  0  0
   67.0180   28.1149    2.9414 H   0  0  0  0  0  0
   66.3312   29.7115    2.7840 H   0  0  0  0  0  0
   66.0566   27.3776    0.9318 H   0  0  0  0  0  0
   67.9988   29.3209    0.9293 H   0  0  0  0  0  0
   67.4042   31.5515   -0.8160 H   0  0  0  0  0  0
   68.1682   30.2402   -1.6810 H   0  0  0  0  0  0
   69.4674   31.1115    0.9072 H   0  0  0  0  0  0
   69.5265   32.2258   -0.4280 H   0  0  0  0  0  0
   70.5792   30.5151   -1.8800 H   0  0  0  0  0  0
   70.4565   29.3239   -0.6133 H   0  0  0  0  0  0
   72.7303   30.1578   -0.7498 H   0  0  0  0  0  0
   72.0600   30.6088    0.7903 H   0  0  0  0  0  0
   71.6896   32.9207    0.0377 H   0  0  0  0  0  0
   72.1293   32.5339   -1.5979 H   0  0  0  0  0  0
   74.0560   32.3120    0.7920 H   0  0  0  0  0  0
   73.9104   33.7323   -0.2013 H   0  0  0  0  0  0
   75.8180   30.9150    0.1580 H   0  0  0  0  0  0
   76.7875   31.6095   -2.2616 H   0  0  0  0  0  0
  1  2  1  0  0  0
  1 24  1  0  0  0
  1 25  1  0  0  0
  1 26  1  0  0  0
  2 10  1  0  0  0
  2  3  1  0  0  0
  2 27  1  0  0  0
  3  8  2  0  0  0
  3  4  1  0  0  0
  4  5  2  0  0  0
  4 28  1  0  0  0
  5  6  1  0  0  0
  5 29  1  0  0  0
  6  7  2  0  0  0
  6 30  1  0  0  0
  7  8  1  0  0  0
  7 31  1  0  0  0
  8  9  1  0  0  0
  9 10  1  0  0  0
  9 32  1  0  0  0
  9 33  1  0  0  0
 10 11  1  0  0  0
 10 34  1  0  0  0
 11 12  2  0  0  0
 11 13  1  0  0  0
 13 14  1  0  0  0
 13 35  1  0  0  0
 14 15  1  0  0  0
 14 36  1  0  0  0
 14 37  1  0  0  0
 15 16  1  0  0  0
 15 38  1  0  0  0
 15 39  1  0  0  0
 16 17  1  0  0  0
 16 40  1  0  0  0
 16 41  1  0  0  0
 17 18  1  0  0  0
 17 42  1  0  0  0
 17 43  1  0  0  0
 18 19  1  0  0  0
 18 44  1  0  0  0
 18 45  1  0  0  0
 19 20  1  0  0  0
 19 46  1  0  0  0
 19 47  1  0  0  0
 20 21  2  0  0  0
 20 22  1  0  0  0
 22 23  1  0  0  0
 22 48  1  0  0  0
 23 49  1  0  0  0
M  END
> <s_m_entry_id>
52609

> <s_m_entry_name>
ligand_docking-pose.34

> <s_m_Source_Path>
/home/csk/Desktop/cluster/DUD-E-result/hdac2

> <s_m_Source_File>
ligand_docking-pose.sdf

> <i_m_Source_File_Index>
34

> <i_lp_mmshare_version>
53161

> <r_lp_tautomer_probability>
1

> <s_lp_Force_Field>
OPLS_2005

> <r_lp_Energy>
24.231864

> <b_lp_Chiralities_Consistent>
1

> <s_lp_Variant>
87103-4

> <s_i_glide_gridfile>
glide-grid_3max

> <i_i_glide_lignum>
293

> <i_i_glide_rotatable_bonds>
11

> <r_i_docking_score>
-8.09778786499665

> <r_i_glide_ligand_efficiency>
-0.352077733260724

> <r_i_glide_ligand_efficiency_sa>
-1.00126223891468

> <r_i_glide_ligand_efficiency_ln>
-1.95811853243694

> <r_i_glide_gscore>
-8.09778786499665

> <r_i_glide_lipo>
-2.85786859846312

> <r_i_glide_hbond>
-0.456

> <r_i_glide_metal>
-2.3

> <r_i_glide_rewards>
-1.44178859835871

> <r_i_glide_evdw>
-11.8461980819702

> <r_i_glide_ecoul>
-14.3251504898071

> <r_i_glide_erotb>
1.83897486245722

> <r_i_glide_esite>
-0.140023053062468

> <r_i_glide_emodel>
-25.9451794550978

> <r_i_glide_energy>
-26.1713485717773

> <r_i_glide_einternal>
9.51903533935547

> <i_i_glide_confnum>
61

> <i_i_glide_posenum>
381

> <r_i_glide_eff_state_penalty>
0

> <i_f3d_flags>
0

> <s_user_duplicate_titles>
87103

> <s_m_subgroup_title>
dock_pv

> <s_m_subgroupid>
dock_pv1

> <b_m_subgroup_collapsed>
0

$$$$
324602
                    3D
 Schrodinger Suite 2021-1.
 38 39  0  0  1  0            999 V2000
   73.4925   32.0087   -0.9841 C   0  0  0  0  0  0
   73.0691   33.2921   -1.3178 C   0  0  0  0  0  0
   71.7105   33.5982   -1.3744 C   0  0  0  0  0  0
   70.7455   32.6007   -1.0914 C   0  0  0  0  0  0
   71.1797   31.2827   -0.7732 C   0  0  0  0  0  0
   72.5660   31.0039   -0.7160 C   0  0  0  0  0  0
   70.1882   30.3124   -0.5010 C   0  0  0  0  0  0
   68.8396   30.6613   -0.5015 C   0  0  0  0  0  0
   68.5096   31.9752   -0.8135 C   0  0  0  0  0  0
   69.4255   32.9264   -1.1095 N   0  0  0  0  0  0
   67.9297   29.7167   -0.0160 N   0  0  0  0  0  0
   66.5880   29.6783   -0.0299 C   0  0  0  0  0  0
   65.8709   30.2940   -0.8159 O   0  0  0  0  0  0
   65.9668   28.7567    1.0359 C   0  0  0  0  0  0
   64.4358   28.9159    1.1981 C   0  0  0  0  0  0
   63.7649   27.8574    2.0868 C   0  0  0  0  0  0
   63.8388   28.1154    3.5238 N   0  0  0  0  0  0
   62.7809   28.1889    4.3586 C   0  0  0  0  0  0
   61.6121   28.1246    3.9814 O   0  0  0  0  0  0
   63.1141   28.2960    5.8598 C   0  0  0  0  0  0
   61.9164   29.3132    6.7838 S   0  0  0  0  0  0
   74.5492   31.7867   -0.9261 H   0  0  0  0  0  0
   73.8024   34.0594   -1.5218 H   0  0  0  0  0  0
   71.3894   34.6004   -1.6158 H   0  0  0  0  0  0
   72.9058   30.0096   -0.4607 H   0  0  0  0  0  0
   70.4986   29.3151   -0.2566 H   0  0  0  0  0  0
   67.4837   32.3097   -0.7814 H   0  0  0  0  0  0
   68.3605   29.0569    0.6256 H   0  0  0  0  0  0
   66.4512   28.9486    1.9946 H   0  0  0  0  0  0
   66.2134   27.7286    0.7668 H   0  0  0  0  0  0
   63.9673   28.8478    0.2139 H   0  0  0  0  0  0
   64.2171   29.9110    1.5843 H   0  0  0  0  0  0
   64.2615   26.9154    1.8964 H   0  0  0  0  0  0
   62.7412   27.6852    1.7640 H   0  0  0  0  0  0
   64.7633   28.0996    3.9275 H   0  0  0  0  0  0
   64.1269   28.6616    6.0035 H   0  0  0  0  0  0
   63.1070   27.3151    6.3142 H   0  0  0  0  0  0
   60.9217   28.4168    6.7379 H   0  0  0  0  0  0
  1  6  1  0  0  0
  1  2  2  0  0  0
  1 22  1  0  0  0
  2  3  1  0  0  0
  2 23  1  0  0  0
  3  4  2  0  0  0
  3 24  1  0  0  0
  4 10  1  0  0  0
  4  5  1  0  0  0
  5  6  2  0  0  0
  5  7  1  0  0  0
  6 25  1  0  0  0
  7  8  2  0  0  0
  7 26  1  0  0  0
  8  9  1  0  0  0
  8 11  1  0  0  0
  9 10  2  0  0  0
  9 27  1  0  0  0
 11 12  1  0  0  0
 11 28  1  0  0  0
 12 13  2  0  0  0
 12 14  1  0  0  0
 14 15  1  0  0  0
 14 29  1  0  0  0
 14 30  1  0  0  0
 15 16  1  0  0  0
 15 31  1  0  0  0
 15 32  1  0  0  0
 16 17  1  0  0  0
 16 33  1  0  0  0
 16 34  1  0  0  0
 17 18  1  0  0  0
 17 35  1  0  0  0
 18 19  2  0  0  0
 18 20  1  0  0  0
 20 21  1  0  0  0
 20 36  1  0  0  0
 20 37  1  0  0  0
 21 38  1  0  0  0
M  END
> <s_m_entry_id>
52610

> <s_m_entry_name>
ligand_docking-pose.35

> <s_m_Source_Path>
/home/csk/Desktop/cluster/DUD-E-result/hdac2

> <s_m_Source_File>
ligand_docking-pose.sdf

> <i_m_Source_File_Index>
35

> <i_lp_mmshare_version>
53161

> <r_lp_tautomer_probability>
1

> <s_lp_Force_Field>
OPLS_2005

> <r_lp_Energy>
12.266986

> <b_lp_Chiralities_Consistent>
1

> <s_lp_Variant>
324602-1

> <s_i_glide_gridfile>
glide-grid_3max

> <i_i_glide_lignum>
25

> <i_i_glide_rotatable_bonds>
9

> <r_i_docking_score>
-8.09032573728956

> <r_i_glide_ligand_efficiency>
-0.385253606537598

> <r_i_glide_ligand_efficiency_sa>
-1.06288548803594

> <r_i_glide_ligand_efficiency_ln>
-2.00031669050239

> <r_i_glide_gscore>
-8.09032573728956

> <r_i_glide_lipo>
-2.57401361707972

> <r_i_glide_hbond>
-0.32

> <r_i_glide_metal>
-2.3

> <r_i_glide_rewards>
-1.43449235654932

> <r_i_glide_evdw>
-25.7154083251953

> <r_i_glide_ecoul>
-9.1276683807373

> <r_i_glide_erotb>
1.40139919162818

> <r_i_glide_esite>
-0.208298281918328

> <r_i_glide_emodel>
-46.5718443788196

> <r_i_glide_energy>
-34.8430767059326

> <r_i_glide_einternal>
10.8143177032471

> <i_i_glide_confnum>
7

> <i_i_glide_posenum>
35

> <r_i_glide_eff_state_penalty>
0

> <i_f3d_flags>
0

> <s_user_duplicate_titles>
324602

> <s_m_subgroup_title>
dock_pv

> <s_m_subgroupid>
dock_pv1

> <b_m_subgroup_collapsed>
0

$$$$
235091
                    3D
 Schrodinger Suite 2021-1.
 45 47  0  0  1  0            999 V2000
   72.3502   34.2109   -1.7920 C   0  0  0  0  0  0
   73.4462   33.8276   -1.0145 C   0  0  0  0  0  0
   73.3845   32.7192   -0.1683 C   0  0  0  0  0  0
   72.1737   32.0210   -0.1359 C   0  0  0  0  0  0
   71.0423   32.3874   -0.9060 C   0  0  0  0  0  0
   71.1445   33.5022   -1.7554 C   0  0  0  0  0  0
   70.0299   31.4163   -0.5952 C   0  0  0  0  0  0
   70.6181   30.5964    0.3278 C   0  0  0  0  0  0
   71.9092   30.9151    0.6096 O   0  0  0  0  0  0
   68.6718   31.2547   -1.2156 C   0  0  0  0  0  0
   67.8058   30.0648   -0.7400 C   0  0  0  0  0  0
   66.3418   30.2272   -0.8160 N   0  0  1  0  0  0
   65.6178   28.9468   -0.7277 C   0  0  0  0  0  0
   65.1598   28.5733    0.6717 C   0  0  0  0  0  0
   63.9444   27.9027    0.8262 C   0  0  0  0  0  0
   63.4180   27.7150    2.1013 C   0  0  0  0  0  0
   64.1385   28.1150    3.2176 C   0  0  0  0  0  0
   65.4180   28.6279    3.0619 C   0  0  0  0  0  0
   65.9011   28.9149    1.8009 C   0  0  0  0  0  0
   63.5781   28.1150    4.5687 C   0  0  0  0  0  0
   62.3125   28.4517    4.9012 C   0  0  0  0  0  0
   61.9200   28.5150    6.2877 C   0  0  0  0  0  0
   62.7031   28.2160    7.1838 O   0  0  0  0  0  0
   60.6548   28.9150    6.5026 N   0  0  0  0  0  0
   60.2182   29.0683    7.8336 O   0  0  0  0  0  0
   72.4401   35.0748   -2.4357 H   0  0  0  0  0  0
   74.3625   34.3984   -1.0717 H   0  0  0  0  0  0
   74.2283   32.4057    0.4331 H   0  0  0  0  0  0
   70.3067   33.8129   -2.3607 H   0  0  0  0  0  0
   70.2180   29.7150    0.7840 H   0  0  0  0  0  0
   69.0180   30.9733   -2.2107 H   0  0  0  0  0  0
   68.1189   32.1923   -1.2160 H   0  0  0  0  0  0
   68.1203   29.7155    0.2369 H   0  0  0  0  0  0
   68.0698   29.3150   -1.4613 H   0  0  0  0  0  0
   66.0813   30.8110   -0.0160 H   0  0  0  0  0  0
   66.2180   28.1205   -1.1040 H   0  0  0  0  0  0
   64.7399   28.9382   -1.3732 H   0  0  0  0  0  0
   63.3695   27.5972   -0.0369 H   0  0  0  0  0  0
   62.4521   27.2543    2.2367 H   0  0  0  0  0  0
   66.0007   28.9107    3.9240 H   0  0  0  0  0  0
   66.8511   29.4120    1.7381 H   0  0  0  0  0  0
   64.2836   27.8368    5.3437 H   0  0  0  0  0  0
   61.5781   28.7050    4.1503 H   0  0  0  0  0  0
   59.9263   29.0775    5.8212 H   0  0  0  0  0  0
   60.2142   30.0172    7.9767 H   0  0  0  0  0  0
  1  6  1  0  0  0
  1  2  2  0  0  0
  1 26  1  0  0  0
  2  3  1  0  0  0
  2 27  1  0  0  0
  3  4  2  0  0  0
  3 28  1  0  0  0
  4  9  1  0  0  0
  4  5  1  0  0  0
  5  6  2  0  0  0
  5  7  1  0  0  0
  6 29  1  0  0  0
  7  8  2  0  0  0
  7 10  1  0  0  0
  8  9  1  0  0  0
  8 30  1  0  0  0
 10 11  1  0  0  0
 10 31  1  0  0  0
 10 32  1  0  0  0
 11 12  1  0  0  0
 11 33  1  0  0  0
 11 34  1  0  0  0
 12 13  1  0  0  0
 12 35  1  0  0  0
 13 14  1  0  0  0
 13 36  1  0  0  0
 13 37  1  0  0  0
 14 19  1  0  0  0
 14 15  2  0  0  0
 15 16  1  0  0  0
 15 38  1  0  0  0
 16 17  2  0  0  0
 16 39  1  0  0  0
 17 18  1  0  0  0
 17 20  1  0  0  0
 18 19  2  0  0  0
 18 40  1  0  0  0
 19 41  1  0  0  0
 20 21  2  0  0  0
 20 42  1  0  0  0
 21 22  1  0  0  0
 21 43  1  0  0  0
 22 23  2  0  0  0
 22 24  1  0  0  0
 24 25  1  0  0  0
 24 44  1  0  0  0
 25 45  1  0  0  0
M  END
> <s_m_entry_id>
52611

> <s_m_entry_name>
ligand_docking-pose.36

> <s_m_Source_Path>
/home/csk/Desktop/cluster/DUD-E-result/hdac2

> <s_m_Source_File>
ligand_docking-pose.sdf

> <i_m_Source_File_Index>
36

> <i_lp_mmshare_version>
53161

> <r_lp_tautomer_probability>
1

> <s_lp_Force_Field>
OPLS_2005

> <r_lp_Energy>
21.020795

> <b_lp_Chiralities_Consistent>
1

> <s_lp_Variant>
235091-1

> <s_i_glide_gridfile>
glide-grid_3max

> <i_i_glide_lignum>
52

> <i_i_glide_rotatable_bonds>
9

> <r_i_docking_score>
-8.0763697480979

> <r_i_glide_ligand_efficiency>
-0.323054789923916

> <r_i_glide_ligand_efficiency_sa>
-0.944617935138626

> <r_i_glide_ligand_efficiency_ln>
-1.91434165956999

> <r_i_glide_gscore>
-8.0763697480979

> <r_i_glide_lipo>
-2.801437106992

> <r_i_glide_hbond>
-0.32

> <r_i_glide_metal>
-1.8998543444604

> <r_i_glide_rewards>
-1.39546268801189

> <r_i_glide_evdw>
-27.3400497436523

> <r_i_glide_ecoul>
-8.92286109924316

> <r_i_glide_erotb>
1.1683126000547

> <r_i_glide_esite>
-0.122496556619221

> <r_i_glide_emodel>
-37.1612620651896

> <r_i_glide_energy>
-36.2629108428955

> <r_i_glide_einternal>
13.1888103485107

> <i_i_glide_confnum>
23

> <i_i_glide_posenum>
90

> <r_i_glide_eff_state_penalty>
0

> <i_f3d_flags>
0

> <s_user_duplicate_titles>
235091

> <s_m_subgroup_title>
dock_pv

> <s_m_subgroupid>
dock_pv1

> <b_m_subgroup_collapsed>
0

$$$$
185102
                    3D
 Schrodinger Suite 2021-1.
 53 54  0  0  1  0            999 V2000
   75.6380   33.3139   -4.6433 C   0  0  0  0  0  0
   74.3811   33.7514   -4.0468 N   0  0  0  0  0  0
   73.1943   33.7154   -4.6801 C   0  0  0  0  0  0
   73.0163   33.3181   -5.8326 O   0  0  0  0  0  0
   71.9737   34.2121   -3.7916 C   0  0  0  0  0  0
   70.8875   34.4906   -4.3014 O   0  0  0  0  0  0
   72.1730   34.2508   -2.2641 C   0  0  0  0  0  0
   72.1675   32.8603   -1.5830 C   0  0  0  0  0  0
   70.8567   32.0719   -1.7797 C   0  0  0  0  0  0
   70.7889   30.7684   -0.9630 C   0  0  0  0  0  0
   69.4759   29.9872   -1.1814 C   0  0  0  0  0  0
   68.2502   30.7309   -0.6173 C   0  0  0  0  0  0
   67.0197   29.8488   -0.4035 C   0  0  0  0  0  0
   66.1450   29.7148   -1.2160 O   0  0  0  0  0  0
   66.9168   29.3151    0.7837 N   0  0  0  0  0  0
   65.8400   28.7815    1.4943 C   0  0  0  0  0  0
   64.5554   28.4999    1.0413 C   0  0  0  0  0  0
   63.5963   28.1200    1.9862 C   0  0  0  0  0  0
   63.8711   28.1104    3.3628 C   0  0  0  0  0  0
   65.2073   28.1150    3.7228 C   0  0  0  0  0  0
   66.1471   28.5152    2.8112 C   0  0  0  0  0  0
   62.8360   28.1154    4.4441 C   0  0  0  0  0  0
   63.2195   28.1148    5.8019 C   0  0  0  0  0  0
   62.2882   28.2755    6.8035 C   0  0  0  0  0  0
   60.9785   28.5193    6.4798 C   0  0  0  0  0  0
   60.5535   28.5148    5.1581 C   0  0  0  0  0  0
   61.4716   28.2237    4.1549 C   0  0  0  0  0  0
   76.4315   34.0252   -4.4076 H   0  0  0  0  0  0
   75.5843   33.2228   -5.7322 H   0  0  0  0  0  0
   75.9181   32.3412   -4.2369 H   0  0  0  0  0  0
   74.4262   34.0802   -3.0940 H   0  0  0  0  0  0
   73.0815   34.8002   -2.0196 H   0  0  0  0  0  0
   71.3560   34.8437   -1.8532 H   0  0  0  0  0  0
   73.0084   32.2604   -1.9375 H   0  0  0  0  0  0
   72.3403   33.0014   -0.5152 H   0  0  0  0  0  0
   70.0199   32.7158   -1.5075 H   0  0  0  0  0  0
   70.7269   31.8309   -2.8356 H   0  0  0  0  0  0
   71.6354   30.1293   -1.2164 H   0  0  0  0  0  0
   70.9086   30.9927    0.0987 H   0  0  0  0  0  0
   69.3303   29.7836   -2.2435 H   0  0  0  0  0  0
   69.5792   29.0121   -0.7029 H   0  0  0  0  0  0
   68.5188   31.1612    0.3500 H   0  0  0  0  0  0
   67.9763   31.5934   -1.2170 H   0  0  0  0  0  0
   67.7768   29.3149    1.3237 H   0  0  0  0  0  0
   64.2791   28.5968    0.0022 H   0  0  0  0  0  0
   62.6181   27.9181    1.6315 H   0  0  0  0  0  0
   65.5739   27.9495    4.7203 H   0  0  0  0  0  0
   67.1309   28.5083    3.1839 H   0  0  0  0  0  0
   64.2269   27.9547    6.1404 H   0  0  0  0  0  0
   62.5322   28.0997    7.8296 H   0  0  0  0  0  0
   60.2484   28.6315    7.2692 H   0  0  0  0  0  0
   59.5045   28.6315    4.9239 H   0  0  0  0  0  0
   61.1007   28.1506    3.1511 H   0  0  0  0  0  0
  1  2  1  0  0  0
  1 28  1  0  0  0
  1 29  1  0  0  0
  1 30  1  0  0  0
  2  3  1  0  0  0
  2 31  1  0  0  0
  3  4  2  0  0  0
  3  5  1  0  0  0
  5  6  2  0  0  0
  5  7  1  0  0  0
  7  8  1  0  0  0
  7 32  1  0  0  0
  7 33  1  0  0  0
  8  9  1  0  0  0
  8 34  1  0  0  0
  8 35  1  0  0  0
  9 10  1  0  0  0
  9 36  1  0  0  0
  9 37  1  0  0  0
 10 11  1  0  0  0
 10 38  1  0  0  0
 10 39  1  0  0  0
 11 12  1  0  0  0
 11 40  1  0  0  0
 11 41  1  0  0  0
 12 13  1  0  0  0
 12 42  1  0  0  0
 12 43  1  0  0  0
 13 14  2  0  0  0
 13 15  1  0  0  0
 15 16  1  0  0  0
 15 44  1  0  0  0
 16 21  1  0  0  0
 16 17  2  0  0  0
 17 18  1  0  0  0
 17 45  1  0  0  0
 18 19  2  0  0  0
 18 46  1  0  0  0
 19 20  1  0  0  0
 19 22  1  0  0  0
 20 21  2  0  0  0
 20 47  1  0  0  0
 21 48  1  0  0  0
 22 27  1  0  0  0
 22 23  2  0  0  0
 23 24  1  0  0  0
 23 49  1  0  0  0
 24 25  2  0  0  0
 24 50  1  0  0  0
 25 26  1  0  0  0
 25 51  1  0  0  0
 26 27  2  0  0  0
 26 52  1  0  0  0
 27 53  1  0  0  0
M  END
> <s_m_entry_id>
52612

> <s_m_entry_name>
ligand_docking-pose.37

> <s_m_Source_Path>
/home/csk/Desktop/cluster/DUD-E-result/hdac2

> <s_m_Source_File>
ligand_docking-pose.sdf

> <i_m_Source_File_Index>
37

> <i_lp_mmshare_version>
53161

> <r_lp_tautomer_probability>
0.99990000499975

> <s_lp_Force_Field>
OPLS_2005

> <r_lp_Energy>
24.116024

> <b_lp_Chiralities_Consistent>
1

> <s_lp_Variant>
185102-1

> <s_i_glide_gridfile>
glide-grid_3max

> <i_i_glide_lignum>
428

> <i_i_glide_rotatable_bonds>
12

> <r_i_docking_score>
-7.95585978917861

> <r_i_glide_ligand_efficiency>
-0.294661473673282

> <r_i_glide_ligand_efficiency_sa>
-0.88398442004869

> <r_i_glide_ligand_efficiency_ln>
-1.85199299632124

> <r_i_glide_gscore>
-7.95585978917861

> <r_i_glide_lipo>
-2.63573160684194

> <r_i_glide_hbond>
-0.847890258337522

> <r_i_glide_metal>
-2.3

> <r_i_glide_rewards>
-1.08934489527993

> <r_i_glide_evdw>
1.06478786468506

> <r_i_glide_ecoul>
-17.0334625244141

> <r_i_glide_erotb>
1.57663682627777

> <r_i_glide_esite>
-0.157749869569135

> <r_i_glide_emodel>
-10.8091445520187

> <r_i_glide_energy>
-15.968674659729

> <r_i_glide_einternal>
24.3475914001465

> <i_i_glide_confnum>
83

> <i_i_glide_posenum>
57

> <r_i_glide_eff_state_penalty>
0

> <i_f3d_flags>
0

> <s_user_duplicate_titles>
185102

> <s_m_subgroup_title>
dock_pv

> <s_m_subgroupid>
dock_pv1

> <b_m_subgroup_collapsed>
0

$$$$
184327
                    3D
 Schrodinger Suite 2021-1.
 41 42  0  0  1  0            999 V2000
   62.0009   28.5150    6.7524 C   0  0  0  0  0  0
   61.2468   28.5150    5.5830 C   0  0  0  0  0  0
   61.8785   28.3370    4.3535 C   0  0  0  0  0  0
   63.2653   28.1677    4.2823 C   0  0  0  0  0  0
   64.0004   28.1150    5.4742 C   0  0  0  0  0  0
   63.3771   28.3050    6.6979 C   0  0  0  0  0  0
   63.9409   28.1393    2.9433 C   0  0  0  0  0  0
   63.4180   27.5303    1.8209 C   0  0  0  0  0  0
   64.3557   27.8585    0.4103 S   0  0  0  0  0  0
   65.4360   28.7386    1.4413 C   0  0  0  0  0  0
   65.0957   28.7493    2.7113 N   0  0  0  0  0  0
   66.6180   29.3150    1.0093 N   0  0  0  0  0  0
   66.9477   29.7526   -0.2213 C   0  0  0  0  0  0
   66.2180   29.7150   -1.2160 O   0  0  0  0  0  0
   68.2807   30.5118   -0.2874 C   0  0  0  0  0  0
   69.2345   30.0558   -1.4108 C   0  0  0  0  0  0
   70.3028   31.1164   -1.7398 C   0  0  0  0  0  0
   71.4329   31.1992   -0.6952 C   0  0  0  0  0  0
   72.6245   32.1009   -1.0872 C   0  0  0  0  0  0
   72.3247   33.6127   -1.1802 C   0  0  0  0  0  0
   71.5686   34.0719   -2.7693 S   0  0  0  0  0  0
   61.5031   28.6392    7.7027 H   0  0  0  0  0  0
   60.1731   28.6310    5.6283 H   0  0  0  0  0  0
   61.2818   28.3500    3.4543 H   0  0  0  0  0  0
   65.0711   27.9699    5.4451 H   0  0  0  0  0  0
   63.9842   28.2787    7.5840 H   0  0  0  0  0  0
   62.5464   26.9150    1.7788 H   0  0  0  0  0  0
   67.3359   29.4090    1.7170 H   0  0  0  0  0  0
   68.8019   30.4989    0.6718 H   0  0  0  0  0  0
   68.0059   31.5556   -0.4454 H   0  0  0  0  0  0
   68.6793   29.8240   -2.3199 H   0  0  0  0  0  0
   69.7188   29.1199   -1.1274 H   0  0  0  0  0  0
   69.8180   32.0869   -1.8366 H   0  0  0  0  0  0
   70.7309   30.9148   -2.7211 H   0  0  0  0  0  0
   71.8207   30.1937   -0.5215 H   0  0  0  0  0  0
   71.0284   31.5285    0.2632 H   0  0  0  0  0  0
   73.0728   31.7447   -2.0160 H   0  0  0  0  0  0
   73.3984   31.9622   -0.3296 H   0  0  0  0  0  0
   73.2497   34.1816   -1.0784 H   0  0  0  0  0  0
   71.6753   33.9264   -0.3629 H   0  0  0  0  0  0
   72.6557   33.8441   -3.5121 H   0  0  0  0  0  0
  1  6  1  0  0  0
  1  2  2  0  0  0
  1 22  1  0  0  0
  2  3  1  0  0  0
  2 23  1  0  0  0
  3  4  2  0  0  0
  3 24  1  0  0  0
  4  5  1  0  0  0
  4  7  1  0  0  0
  5  6  2  0  0  0
  5 25  1  0  0  0
  6 26  1  0  0  0
  7 11  1  0  0  0
  7  8  2  0  0  0
  8  9  1  0  0  0
  8 27  1  0  0  0
  9 10  1  0  0  0
 10 11  2  0  0  0
 10 12  1  0  0  0
 12 13  1  0  0  0
 12 28  1  0  0  0
 13 14  2  0  0  0
 13 15  1  0  0  0
 15 16  1  0  0  0
 15 29  1  0  0  0
 15 30  1  0  0  0
 16 17  1  0  0  0
 16 31  1  0  0  0
 16 32  1  0  0  0
 17 18  1  0  0  0
 17 33  1  0  0  0
 17 34  1  0  0  0
 18 19  1  0  0  0
 18 35  1  0  0  0
 18 36  1  0  0  0
 19 20  1  0  0  0
 19 37  1  0  0  0
 19 38  1  0  0  0
 20 21  1  0  0  0
 20 39  1  0  0  0
 20 40  1  0  0  0
 21 41  1  0  0  0
M  END
> <s_m_entry_id>
52613

> <s_m_entry_name>
ligand_docking-pose.38

> <s_m_Source_Path>
/home/csk/Desktop/cluster/DUD-E-result/hdac2

> <s_m_Source_File>
ligand_docking-pose.sdf

> <i_m_Source_File_Index>
38

> <i_lp_mmshare_version>
53161

> <r_lp_tautomer_probability>
0.999000488399163

> <s_lp_Force_Field>
OPLS_2005

> <r_lp_Energy>
7.154921

> <b_lp_Chiralities_Consistent>
1

> <s_lp_Variant>
184327-1

> <s_i_glide_gridfile>
glide-grid_3max

> <i_i_glide_lignum>
127

> <i_i_glide_rotatable_bonds>
10

> <r_i_docking_score>
-7.91949946445656

> <r_i_glide_ligand_efficiency>
-0.377119022116979

> <r_i_glide_ligand_efficiency_sa>
-1.04044278643586

> <r_i_glide_ligand_efficiency_ln>
-1.95808023973141

> <r_i_glide_gscore>
-7.91949946445656

> <r_i_glide_lipo>
-2.52257633610953

> <r_i_glide_hbond>
-0.219013884744344

> <r_i_glide_metal>
-2.3

> <r_i_glide_rewards>
-1.57750956419074

> <r_i_glide_evdw>
-20.1277503967285

> <r_i_glide_ecoul>
-11.6962251663208

> <r_i_glide_erotb>
1.63634448068927

> <r_i_glide_esite>
-0.175922865316665

> <r_i_glide_emodel>
-46.6546727446028

> <r_i_glide_energy>
-31.8239755630493

> <r_i_glide_einternal>
7.50842761993408

> <i_i_glide_confnum>
91

> <i_i_glide_posenum>
313

> <r_i_glide_eff_state_penalty>
0

> <i_f3d_flags>
0

> <s_user_duplicate_titles>
184327

> <s_m_subgroup_title>
dock_pv

> <s_m_subgroupid>
dock_pv1

> <b_m_subgroup_collapsed>
0

$$$$
84154
                    3D
 Schrodinger Suite 2021-1.
 47 47  0  0  1  0            999 V2000
   64.8958   28.1259   -0.0104 C   0  0  0  0  0  0
   65.8454   28.5931    1.1038 C   0  0  2  0  0  0
   65.0767   29.2857    2.2361 C   0  0  0  0  0  0
   64.2466   28.3197    3.1274 C   0  0  0  0  0  0
   62.7537   28.7274    3.2507 C   0  0  0  0  0  0
   61.8287   28.3512    4.4183 C   0  0  0  0  0  0
   62.3348   28.6258    5.8332 C   0  0  0  0  0  0
   61.6702   29.3152    6.6106 O   0  0  0  0  0  0
   63.5308   28.1143    6.1073 N   0  0  0  0  0  0
   64.2174   28.6180    7.1834 O   0  0  0  0  0  0
   67.0179   29.3675    0.6653 N   0  0  0  0  0  0
   67.2273   30.1146   -0.4168 C   0  0  0  0  0  0
   66.3413   30.3502   -1.2159 O   0  0  0  0  0  0
   68.5918   30.7371   -0.5449 C   0  0  0  0  0  0
   68.7183   32.1097   -0.7511 C   0  0  0  0  0  0
   69.9789   32.6750   -0.8913 C   0  0  0  0  0  0
   71.1488   31.9059   -0.7995 C   0  0  0  0  0  0
   71.0041   30.5310   -0.6003 C   0  0  0  0  0  0
   69.7409   29.9570   -0.4871 C   0  0  0  0  0  0
   72.4316   32.5018   -0.9256 N   0  0  0  0  0  0
   73.6015   31.7635   -0.4321 C   0  0  0  0  0  0
   72.5756   33.9522   -0.9900 C   0  0  0  0  0  0
   66.3160   27.7155    1.5221 H   0  0  0  0  0  0
   64.1917   27.3691    0.3368 H   0  0  0  0  0  0
   64.2929   28.9446   -0.4059 H   0  0  0  0  0  0
   65.4933   27.7156   -0.8164 H   0  0  0  0  0  0
   64.4810   30.1074    1.8304 H   0  0  0  0  0  0
   65.8334   29.7612    2.8620 H   0  0  0  0  0  0
   64.7753   28.2521    4.0712 H   0  0  0  0  0  0
   64.2724   27.3048    2.7284 H   0  0  0  0  0  0
   62.2848   28.2850    2.3846 H   0  0  0  0  0  0
   62.6266   29.7902    3.1837 H   0  0  0  0  0  0
   61.6013   27.3234    4.3018 H   0  0  0  0  0  0
   60.8650   28.8475    4.2869 H   0  0  0  0  0  0
   64.1116   27.5471    5.5075 H   0  0  0  0  0  0
   64.1222   27.9283    7.8525 H   0  0  0  0  0  0
   67.8124   29.3150    1.2978 H   0  0  0  0  0  0
   67.8386   32.7309   -0.8098 H   0  0  0  0  0  0
   70.0337   33.7252   -1.0716 H   0  0  0  0  0  0
   71.8682   29.8873   -0.5619 H   0  0  0  0  0  0
   69.6540   28.8890   -0.3977 H   0  0  0  0  0  0
   73.7378   30.8339   -0.9795 H   0  0  0  0  0  0
   74.5258   32.3328   -0.5220 H   0  0  0  0  0  0
   73.4628   31.5077    0.6216 H   0  0  0  0  0  0
   71.9445   34.3901   -1.7668 H   0  0  0  0  0  0
   72.2923   34.4082   -0.0391 H   0  0  0  0  0  0
   73.6028   34.2354   -1.2153 H   0  0  0  0  0  0
  1  2  1  0  0  0
  1 24  1  0  0  0
  1 25  1  0  0  0
  1 26  1  0  0  0
  2 23  1  0  0  0
  2  3  1  0  0  0
  2 11  1  0  0  0
  3  4  1  0  0  0
  3 27  1  0  0  0
  3 28  1  0  0  0
  4  5  1  0  0  0
  4 29  1  0  0  0
  4 30  1  0  0  0
  5  6  1  0  0  0
  5 31  1  0  0  0
  5 32  1  0  0  0
  6  7  1  0  0  0
  6 33  1  0  0  0
  6 34  1  0  0  0
  7  8  2  0  0  0
  7  9  1  0  0  0
  9 10  1  0  0  0
  9 35  1  0  0  0
 10 36  1  0  0  0
 11 12  1  0  0  0
 11 37  1  0  0  0
 12 13  2  0  0  0
 12 14  1  0  0  0
 14 19  1  0  0  0
 14 15  2  0  0  0
 15 16  1  0  0  0
 15 38  1  0  0  0
 16 17  2  0  0  0
 16 39  1  0  0  0
 17 18  1  0  0  0
 17 20  1  0  0  0
 18 19  2  0  0  0
 18 40  1  0  0  0
 19 41  1  0  0  0
 20 21  1  0  0  0
 20 22  1  0  0  0
 21 42  1  0  0  0
 21 43  1  0  0  0
 21 44  1  0  0  0
 22 45  1  0  0  0
 22 46  1  0  0  0
 22 47  1  0  0  0
M  END
> <s_m_entry_id>
52614

> <s_m_entry_name>
ligand_docking-pose.39

> <s_m_Source_Path>
/home/csk/Desktop/cluster/DUD-E-result/hdac2

> <s_m_Source_File>
ligand_docking-pose.sdf

> <i_m_Source_File_Index>
39

> <i_lp_mmshare_version>
53161

> <r_lp_tautomer_probability>
1

> <s_lp_Force_Field>
OPLS_2005

> <r_lp_Energy>
20.413221

> <b_lp_Chiralities_Consistent>
1

> <s_lp_Variant>
84154-1

> <s_i_glide_gridfile>
glide-grid_3max

> <i_i_glide_lignum>
382

> <i_i_glide_rotatable_bonds>
11

> <r_i_docking_score>
-7.89141912755959

> <r_i_glide_ligand_efficiency>
-0.358700869434527

> <r_i_glide_ligand_efficiency_sa>
-1.00509394306023

> <r_i_glide_ligand_efficiency_ln>
-1.92895068128212

> <r_i_glide_gscore>
-7.89141912755959

> <r_i_glide_lipo>
-2.77488746756111

> <r_i_glide_hbond>
-0.449370386209894

> <r_i_glide_metal>
-2.3

> <r_i_glide_rewards>
-1.53514531756283

> <r_i_glide_evdw>
-8.56309032440186

> <r_i_glide_ecoul>
-13.327784538269

> <r_i_glide_erotb>
1.76081387710213

> <r_i_glide_esite>
-0.165507636367439

> <r_i_glide_emodel>
-21.5483407965115

> <r_i_glide_energy>
-21.8908748626709

> <r_i_glide_einternal>
12.5908641815186

> <i_i_glide_confnum>
30

> <i_i_glide_posenum>
116

> <r_i_glide_eff_state_penalty>
0

> <i_f3d_flags>
0

> <s_user_duplicate_titles>
84154

> <s_m_subgroup_title>
dock_pv

> <s_m_subgroupid>
dock_pv1

> <b_m_subgroup_collapsed>
0

$$$$
236368
                    3D
 Schrodinger Suite 2021-1.
 46 47  0  0  1  0            999 V2000
   61.4205   28.5153    6.4822 C   0  0  0  0  0  0
   60.8653   28.5143    5.2054 C   0  0  0  0  0  0
   61.6818   28.2567    4.1027 C   0  0  0  0  0  0
   63.0693   28.1159    4.2506 C   0  0  0  0  0  0
   63.5950   28.1152    5.5459 C   0  0  0  0  0  0
   62.7817   28.2911    6.6413 C   0  0  0  0  0  0
   63.9870   28.0861    3.0724 C   0  0  0  0  0  0
   63.5428   27.7150    1.8056 C   0  0  0  0  0  0
   64.2662   28.0287    0.6632 C   0  0  0  0  0  0
   65.4753   28.7132    0.7895 C   0  0  0  0  0  0
   66.0044   28.9149    2.0648 C   0  0  0  0  0  0
   65.3095   28.5164    3.1840 C   0  0  0  0  0  0
   66.2182   29.1780   -0.4274 C   0  0  0  0  0  0
   65.8174   28.9150   -1.5631 O   0  0  0  0  0  0
   67.3717   29.8288   -0.1919 N   0  0  0  0  0  0
   68.3601   30.2932   -1.1499 C   0  0  0  0  0  0
   69.7893   30.2546   -0.5810 C   0  0  0  0  0  0
   70.8011   31.1365   -1.3449 C   0  0  0  0  0  0
   70.6958   32.6407   -1.0040 C   0  0  0  0  0  0
   71.8197   33.5169   -1.6102 C   0  0  0  0  0  0
   71.6959   33.7493   -3.1222 C   0  0  0  0  0  0
   70.6192   34.1164   -3.5983 O   0  0  0  0  0  0
   72.8079   33.5454   -3.8491 N   0  0  0  0  0  0
   72.7416   33.7139   -5.2411 O   0  0  0  0  0  0
   60.7843   28.6304    7.3478 H   0  0  0  0  0  0
   59.7980   28.6300    5.0767 H   0  0  0  0  0  0
   61.2216   28.2094    3.1300 H   0  0  0  0  0  0
   64.6460   27.9483    5.7268 H   0  0  0  0  0  0
   63.2529   28.1722    7.5841 H   0  0  0  0  0  0
   62.6180   27.1954    1.6977 H   0  0  0  0  0  0
   63.8612   27.7733   -0.3077 H   0  0  0  0  0  0
   66.9640   29.3778    2.2276 H   0  0  0  0  0  0
   65.8034   28.7023    4.1266 H   0  0  0  0  0  0
   67.6430   29.9363    0.7742 H   0  0  0  0  0  0
   68.0965   31.3209   -1.3773 H   0  0  0  0  0  0
   68.3284   29.7250   -2.0806 H   0  0  0  0  0  0
   70.1324   29.2212   -0.6106 H   0  0  0  0  0  0
   69.7923   30.5325    0.4748 H   0  0  0  0  0  0
   70.6926   30.9815   -2.4190 H   0  0  0  0  0  0
   71.8073   30.7937   -1.0969 H   0  0  0  0  0  0
   70.7429   32.7481    0.0791 H   0  0  0  0  0  0
   69.7167   33.0307   -1.2867 H   0  0  0  0  0  0
   72.7952   33.1017   -1.3512 H   0  0  0  0  0  0
   71.7927   34.5048   -1.1498 H   0  0  0  0  0  0
   73.7277   33.2896   -3.5180 H   0  0  0  0  0  0
   73.1570   34.5687   -5.3890 H   0  0  0  0  0  0
  1  6  1  0  0  0
  1  2  2  0  0  0
  1 25  1  0  0  0
  2  3  1  0  0  0
  2 26  1  0  0  0
  3  4  2  0  0  0
  3 27  1  0  0  0
  4  5  1  0  0  0
  4  7  1  0  0  0
  5  6  2  0  0  0
  5 28  1  0  0  0
  6 29  1  0  0  0
  7 12  1  0  0  0
  7  8  2  0  0  0
  8  9  1  0  0  0
  8 30  1  0  0  0
  9 10  2  0  0  0
  9 31  1  0  0  0
 10 11  1  0  0  0
 10 13  1  0  0  0
 11 12  2  0  0  0
 11 32  1  0  0  0
 12 33  1  0  0  0
 13 14  2  0  0  0
 13 15  1  0  0  0
 15 16  1  0  0  0
 15 34  1  0  0  0
 16 17  1  0  0  0
 16 35  1  0  0  0
 16 36  1  0  0  0
 17 18  1  0  0  0
 17 37  1  0  0  0
 17 38  1  0  0  0
 18 19  1  0  0  0
 18 39  1  0  0  0
 18 40  1  0  0  0
 19 20  1  0  0  0
 19 41  1  0  0  0
 19 42  1  0  0  0
 20 21  1  0  0  0
 20 43  1  0  0  0
 20 44  1  0  0  0
 21 22  2  0  0  0
 21 23  1  0  0  0
 23 24  1  0  0  0
 23 45  1  0  0  0
 24 46  1  0  0  0
M  END
> <s_m_entry_id>
52615

> <s_m_entry_name>
ligand_docking-pose.40

> <s_m_Source_Path>
/home/csk/Desktop/cluster/DUD-E-result/hdac2

> <s_m_Source_File>
ligand_docking-pose.sdf

> <i_m_Source_File_Index>
40

> <i_lp_mmshare_version>
53161

> <r_lp_tautomer_probability>
1

> <s_lp_Force_Field>
OPLS_2005

> <r_lp_Energy>
29.772965

> <b_lp_Chiralities_Consistent>
1

> <s_lp_Variant>
236368-1

> <s_i_glide_gridfile>
glide-grid_3max

> <i_i_glide_lignum>
95

> <i_i_glide_rotatable_bonds>
11

> <r_i_docking_score>
-7.82236583408922

> <r_i_glide_ligand_efficiency>
-0.325931909753717

> <r_i_glide_ligand_efficiency_sa>
-0.940150312587594

> <r_i_glide_ligand_efficiency_ln>
-1.87225108907651

> <r_i_glide_gscore>
-7.82236583408922

> <r_i_glide_lipo>
-2.74319892716355

> <r_i_glide_hbond>
-0.310170766890708

> <r_i_glide_metal>
-2.3

> <r_i_glide_rewards>
-1.41031945259556

> <r_i_glide_evdw>
-22.5594234466553

> <r_i_glide_ecoul>
-9.94102382659912

> <r_i_glide_erotb>
1.76044805888323

> <r_i_glide_esite>
-0.2

> <r_i_glide_emodel>
-38.8481866288231

> <r_i_glide_energy>
-32.5004472732544

> <r_i_glide_einternal>
7.62994909286499

> <i_i_glide_confnum>
77

> <i_i_glide_posenum>
9

> <r_i_glide_eff_state_penalty>
0

> <i_f3d_flags>
0

> <s_user_duplicate_titles>
236368

> <s_m_subgroup_title>
dock_pv

> <s_m_subgroupid>
dock_pv1

> <b_m_subgroup_collapsed>
0

$$$$
235483
                    3D
 Schrodinger Suite 2021-1.
 43 44  0  0  1  0            999 V2000
   73.3620   32.6804   -0.6516 C   0  0  0  0  0  0
   72.3948   33.5828   -1.0850 C   0  0  0  0  0  0
   71.0861   33.1476   -1.2748 C   0  0  0  0  0  0
   70.7361   31.8178   -1.0387 C   0  0  0  0  0  0
   71.7238   30.9157   -0.6121 C   0  0  0  0  0  0
   73.0319   31.3492   -0.4160 C   0  0  0  0  0  0
   69.4014   31.5118   -1.2160 O   0  0  0  0  0  0
   68.9560   30.1623   -1.3739 C   0  0  0  0  0  0
   67.8316   29.9173   -0.3619 C   0  0  0  0  0  0
   66.4414   30.1150   -0.8160 N   0  0  1  0  0  0
   65.6364   28.8940   -0.7198 C   0  0  0  0  0  0
   65.1679   28.5492    0.6877 C   0  0  0  0  0  0
   65.8985   28.9027    1.8249 C   0  0  0  0  0  0
   65.4180   28.6184    3.0827 C   0  0  0  0  0  0
   64.1394   28.1150    3.2310 C   0  0  0  0  0  0
   63.4180   27.7150    2.1162 C   0  0  0  0  0  0
   63.9485   27.8878    0.8415 C   0  0  0  0  0  0
   63.5894   28.1150    4.5786 C   0  0  0  0  0  0
   62.3408   28.4969    4.9124 C   0  0  0  0  0  0
   61.9464   28.5150    6.2951 C   0  0  0  0  0  0
   62.7131   28.1534    7.1840 O   0  0  0  0  0  0
   60.6846   28.9150    6.5102 N   0  0  0  0  0  0
   60.2180   28.9150    7.8321 O   0  0  0  0  0  0
   74.3779   33.0123   -0.4921 H   0  0  0  0  0  0
   72.6575   34.6145   -1.2670 H   0  0  0  0  0  0
   70.3333   33.8460   -1.6093 H   0  0  0  0  0  0
   71.5151   29.8788   -0.4160 H   0  0  0  0  0  0
   73.7904   30.6577   -0.0744 H   0  0  0  0  0  0
   69.7209   29.4043   -1.2301 H   0  0  0  0  0  0
   68.6180   29.9999   -2.3940 H   0  0  0  0  0  0
   68.0044   30.5739    0.4926 H   0  0  0  0  0  0
   67.9764   28.9150    0.0200 H   0  0  0  0  0  0
   66.0675   30.7903   -0.1439 H   0  0  0  0  0  0
   66.2180   28.0588   -1.1004 H   0  0  0  0  0  0
   64.7595   28.9251   -1.3658 H   0  0  0  0  0  0
   66.8528   29.3894    1.7938 H   0  0  0  0  0  0
   66.0010   28.8979    3.9459 H   0  0  0  0  0  0
   62.4488   27.2613    2.2536 H   0  0  0  0  0  0
   63.3762   27.5762   -0.0212 H   0  0  0  0  0  0
   64.2824   27.7846    5.3446 H   0  0  0  0  0  0
   61.6234   28.8072    4.1666 H   0  0  0  0  0  0
   59.9558   29.0668    5.8265 H   0  0  0  0  0  0
   59.7766   28.0587    7.8961 H   0  0  0  0  0  0
  1  6  1  0  0  0
  1  2  2  0  0  0
  1 24  1  0  0  0
  2  3  1  0  0  0
  2 25  1  0  0  0
  3  4  2  0  0  0
  3 26  1  0  0  0
  4  5  1  0  0  0
  4  7  1  0  0  0
  5  6  2  0  0  0
  5 27  1  0  0  0
  6 28  1  0  0  0
  7  8  1  0  0  0
  8  9  1  0  0  0
  8 29  1  0  0  0
  8 30  1  0  0  0
  9 10  1  0  0  0
  9 31  1  0  0  0
  9 32  1  0  0  0
 10 11  1  0  0  0
 10 33  1  0  0  0
 11 12  1  0  0  0
 11 34  1  0  0  0
 11 35  1  0  0  0
 12 17  1  0  0  0
 12 13  2  0  0  0
 13 14  1  0  0  0
 13 36  1  0  0  0
 14 15  2  0  0  0
 14 37  1  0  0  0
 15 16  1  0  0  0
 15 18  1  0  0  0
 16 17  2  0  0  0
 16 38  1  0  0  0
 17 39  1  0  0  0
 18 19  2  0  0  0
 18 40  1  0  0  0
 19 20  1  0  0  0
 19 41  1  0  0  0
 20 21  2  0  0  0
 20 22  1  0  0  0
 22 23  1  0  0  0
 22 42  1  0  0  0
 23 43  1  0  0  0
M  END
> <s_m_entry_id>
52616

> <s_m_entry_name>
ligand_docking-pose.41

> <s_m_Source_Path>
/home/csk/Desktop/cluster/DUD-E-result/hdac2

> <s_m_Source_File>
ligand_docking-pose.sdf

> <i_m_Source_File_Index>
41

> <i_lp_mmshare_version>
53161

> <r_lp_tautomer_probability>
1

> <s_lp_Force_Field>
OPLS_2005

> <r_lp_Energy>
32.630567

> <b_lp_Chiralities_Consistent>
1

> <s_lp_Variant>
235483-1

> <s_i_glide_gridfile>
glide-grid_3max

> <i_i_glide_lignum>
270

> <i_i_glide_rotatable_bonds>
10

> <r_i_docking_score>
-7.75033857185379

> <r_i_glide_ligand_efficiency>
-0.336971242254513

> <r_i_glide_ligand_efficiency_sa>
-0.958301388005588

> <r_i_glide_ligand_efficiency_ln>
-1.87410214285899

> <r_i_glide_gscore>
-7.75033857185379

> <r_i_glide_lipo>
-2.47593736522425

> <r_i_glide_hbond>
-0.306501721936629

> <r_i_glide_metal>
-1.52948777512863

> <r_i_glide_rewards>
-1.38625683779381

> <r_i_glide_evdw>
-33.2362747192383

> <r_i_glide_ecoul>
-11.949743270874

> <r_i_glide_erotb>
1.52165709599867

> <r_i_glide_esite>
-0.119536741176111

> <r_i_glide_emodel>
-54.9587187716496

> <r_i_glide_energy>
-45.1860179901123

> <r_i_glide_einternal>
9.91817092895508

> <i_i_glide_confnum>
4

> <i_i_glide_posenum>
32

> <r_i_glide_eff_state_penalty>
0

> <i_f3d_flags>
0

> <s_user_duplicate_titles>
235483

> <s_m_subgroup_title>
dock_pv

> <s_m_subgroupid>
dock_pv1

> <b_m_subgroup_collapsed>
0

$$$$
632444
                    3D
 Schrodinger Suite 2021-1.
 40 40  0  0  1  0            999 V2000
   70.6941   32.1420   -1.6592 C   0  0  0  0  0  0
   72.0713   32.2795   -1.7984 C   0  0  0  0  0  0
   72.9172   31.7152   -0.8502 C   0  0  0  0  0  0
   72.3914   31.0423    0.2479 C   0  0  0  0  0  0
   71.0110   30.9150    0.3840 C   0  0  0  0  0  0
   70.1493   31.4308   -0.5815 C   0  0  0  0  0  0
   68.6523   31.2891   -0.4654 C   0  0  0  0  0  0
   67.9650   32.2434   -0.8160 O   0  0  0  0  0  0
   68.1379   30.1163   -0.0160 N   0  0  0  0  0  0
   66.8550   29.7139   -0.1785 C   0  0  0  0  0  0
   66.2180   29.8696   -1.2160 O   0  0  0  0  0  0
   66.3367   29.0383    0.8668 N   0  0  0  0  0  0
   65.1333   28.1948    0.8006 C   0  0  0  0  0  0
   64.0143   28.6008    1.7805 C   0  0  0  0  0  0
   64.2775   28.2987    3.2687 C   0  0  0  0  0  0
   63.0262   28.5150    4.1677 C   0  0  0  0  0  0
   63.2651   28.3494    5.6985 C   0  0  0  0  0  0
   62.2646   29.0956    6.5933 C   0  0  0  0  0  0
   62.6179   30.1150    7.1840 O   0  0  0  0  0  0
   61.0180   28.6116    6.6891 N   0  0  0  0  0  0
   60.1123   29.3150    7.5011 O   0  0  0  0  0  0
   74.8011   31.8722   -1.0612 Br  0  0  0  0  0  0
   70.0548   32.5895   -2.4044 H   0  0  0  0  0  0
   72.4835   32.8154   -2.6405 H   0  0  0  0  0  0
   73.0507   30.6289    0.9972 H   0  0  0  0  0  0
   70.6173   30.4305    1.2632 H   0  0  0  0  0  0
   68.7403   29.5102    0.5237 H   0  0  0  0  0  0
   66.9236   28.9148    1.6809 H   0  0  0  0  0  0
   65.4427   27.1749    1.0157 H   0  0  0  0  0  0
   64.7180   28.1321   -0.2085 H   0  0  0  0  0  0
   63.1032   28.0817    1.4810 H   0  0  0  0  0  0
   63.8179   29.6656    1.6590 H   0  0  0  0  0  0
   65.1182   28.9147    3.5840 H   0  0  0  0  0  0
   64.6180   27.2739    3.3764 H   0  0  0  0  0  0
   62.2458   27.8172    3.8577 H   0  0  0  0  0  0
   62.6180   29.5007    3.9558 H   0  0  0  0  0  0
   64.2712   28.6494    5.9840 H   0  0  0  0  0  0
   63.2487   27.3150    5.9841 H   0  0  0  0  0  0
   60.6296   27.7548    6.3073 H   0  0  0  0  0  0
   60.0123   28.7444    8.2689 H   0  0  0  0  0  0
  1  6  1  0  0  0
  1  2  2  0  0  0
  1 23  1  0  0  0
  2  3  1  0  0  0
  2 24  1  0  0  0
  3  4  2  0  0  0
  3 22  1  0  0  0
  4  5  1  0  0  0
  4 25  1  0  0  0
  5  6  2  0  0  0
  5 26  1  0  0  0
  6  7  1  0  0  0
  7  8  2  0  0  0
  7  9  1  0  0  0
  9 10  1  0  0  0
  9 27  1  0  0  0
 10 11  2  0  0  0
 10 12  1  0  0  0
 12 13  1  0  0  0
 12 28  1  0  0  0
 13 14  1  0  0  0
 13 29  1  0  0  0
 13 30  1  0  0  0
 14 15  1  0  0  0
 14 31  1  0  0  0
 14 32  1  0  0  0
 15 16  1  0  0  0
 15 33  1  0  0  0
 15 34  1  0  0  0
 16 17  1  0  0  0
 16 35  1  0  0  0
 16 36  1  0  0  0
 17 18  1  0  0  0
 17 37  1  0  0  0
 17 38  1  0  0  0
 18 19  2  0  0  0
 18 20  1  0  0  0
 20 21  1  0  0  0
 20 39  1  0  0  0
 21 40  1  0  0  0
M  END
> <s_m_entry_id>
52617

> <s_m_entry_name>
ligand_docking-pose.42

> <s_m_Source_Path>
/home/csk/Desktop/cluster/DUD-E-result/hdac2

> <s_m_Source_File>
ligand_docking-pose.sdf

> <i_m_Source_File_Index>
42

> <i_lp_mmshare_version>
53161

> <r_lp_tautomer_probability>
1

> <s_lp_Force_Field>
OPLS_2005

> <r_lp_Energy>
15.808063

> <b_lp_Chiralities_Consistent>
1

> <s_lp_Variant>
632444-1

> <s_i_glide_gridfile>
glide-grid_3max

> <i_i_glide_lignum>
229

> <i_i_glide_rotatable_bonds>
12

> <r_i_docking_score>
-7.74693224011813

> <r_i_glide_ligand_efficiency>
-0.352133283641733

> <r_i_glide_ligand_efficiency_sa>
-0.98669130938033

> <r_i_glide_ligand_efficiency_ln>
-1.89363281570415

> <r_i_glide_gscore>
-7.74693224011813

> <r_i_glide_lipo>
-2.0243452617544

> <r_i_glide_hbond>
-0.738599072390921

> <r_i_glide_metal>
-2.3

> <r_i_glide_rewards>
-0.381419544344142

> <r_i_glide_evdw>
-23.5566463470459

> <r_i_glide_ecoul>
-15.2603960037231

> <r_i_glide_erotb>
1.39390650619841

> <r_i_glide_esite>
-0.22958314991631

> <r_i_glide_emodel>
-50.6015991016042

> <r_i_glide_energy>
-38.817042350769

> <r_i_glide_einternal>
12.0318765640259

> <i_i_glide_confnum>
183

> <i_i_glide_posenum>
223

> <r_i_glide_eff_state_penalty>
0

> <i_f3d_flags>
0

> <s_user_duplicate_titles>
632444

> <s_m_subgroup_title>
dock_pv

> <s_m_subgroupid>
dock_pv1

> <b_m_subgroup_collapsed>
0

$$$$
36679
                    3D
 Schrodinger Suite 2021-1.
 40 42  0  0  1  0            999 V2000
   74.3503   35.9465    5.3386 C   0  0  0  0  0  0
   74.3836   34.6818    4.7700 C   0  0  0  0  0  0
   74.1840   34.5162    3.4030 C   0  0  0  0  0  0
   73.9280   35.6313    2.5486 C   0  0  0  0  0  0
   73.8996   36.9313    3.1526 C   0  0  0  0  0  0
   74.1275   37.0669    4.5463 C   0  0  0  0  0  0
   73.6480   38.0674    2.3492 C   0  0  0  0  0  0
   73.4169   37.9298    0.9874 C   0  0  0  0  0  0
   73.4195   36.6756    0.3919 C   0  0  0  0  0  0
   73.6892   35.5182    1.1308 C   0  0  0  0  0  0
   73.7543   34.1917    0.4119 C   0  0  0  0  0  0
   74.7475   33.4759    0.5102 O   0  0  0  0  0  0
   72.6771   33.8695   -0.3260 N   0  0  0  0  0  0
   72.5104   32.6143   -1.0712 C   0  0  0  0  0  0
   71.1480   31.9559   -0.8685 C   0  0  0  0  0  0
   71.0572   30.5871   -0.6051 C   0  0  0  0  0  0
   69.8096   29.9867   -0.4463 C   0  0  0  0  0  0
   68.6436   30.7501   -0.5034 C   0  0  0  0  0  0
   68.7401   32.1210   -0.7505 C   0  0  0  0  0  0
   69.9802   32.7136   -0.9587 C   0  0  0  0  0  0
   67.2876   30.1150   -0.3631 C   0  0  0  0  0  0
   66.4329   30.2600   -1.2160 O   0  0  0  0  0  0
   67.0180   29.4944    0.7834 N   0  0  0  0  0  0
   65.7506   28.9155    0.9829 O   0  0  0  0  0  0
   74.5169   36.0600    6.4002 H   0  0  0  0  0  0
   74.5785   33.8185    5.3899 H   0  0  0  0  0  0
   74.2180   33.5157    2.9966 H   0  0  0  0  0  0
   74.1124   38.0482    4.9979 H   0  0  0  0  0  0
   73.6399   39.0483    2.8020 H   0  0  0  0  0  0
   73.2284   38.8060    0.3846 H   0  0  0  0  0  0
   73.2466   36.6150   -0.6739 H   0  0  0  0  0  0
   71.9598   34.5686   -0.4408 H   0  0  0  0  0  0
   73.3010   31.8980   -0.8301 H   0  0  0  0  0  0
   72.6328   32.8297   -2.1336 H   0  0  0  0  0  0
   71.9504   29.9804   -0.5587 H   0  0  0  0  0  0
   69.7511   28.9154   -0.3216 H   0  0  0  0  0  0
   67.8496   32.7306   -0.8132 H   0  0  0  0  0  0
   70.0280   33.7593   -1.2120 H   0  0  0  0  0  0
   67.6823   29.3148    1.5366 H   0  0  0  0  0  0
   65.9156   27.9703    0.9157 H   0  0  0  0  0  0
  1  6  1  0  0  0
  1  2  2  0  0  0
  1 25  1  0  0  0
  2  3  1  0  0  0
  2 26  1  0  0  0
  3  4  2  0  0  0
  3 27  1  0  0  0
  4 10  1  0  0  0
  4  5  1  0  0  0
  5  6  2  0  0  0
  5  7  1  0  0  0
  6 28  1  0  0  0
  7  8  2  0  0  0
  7 29  1  0  0  0
  8  9  1  0  0  0
  8 30  1  0  0  0
  9 10  2  0  0  0
  9 31  1  0  0  0
 10 11  1  0  0  0
 11 12  2  0  0  0
 11 13  1  0  0  0
 13 14  1  0  0  0
 13 32  1  0  0  0
 14 15  1  0  0  0
 14 33  1  0  0  0
 14 34  1  0  0  0
 15 20  1  0  0  0
 15 16  2  0  0  0
 16 17  1  0  0  0
 16 35  1  0  0  0
 17 18  2  0  0  0
 17 36  1  0  0  0
 18 19  1  0  0  0
 18 21  1  0  0  0
 19 20  2  0  0  0
 19 37  1  0  0  0
 20 38  1  0  0  0
 21 22  2  0  0  0
 21 23  1  0  0  0
 23 24  1  0  0  0
 23 39  1  0  0  0
 24 40  1  0  0  0
M  END
> <s_m_entry_id>
52618

> <s_m_entry_name>
ligand_docking-pose.43

> <s_m_Source_Path>
/home/csk/Desktop/cluster/DUD-E-result/hdac2

> <s_m_Source_File>
ligand_docking-pose.sdf

> <i_m_Source_File_Index>
43

> <i_lp_mmshare_version>
53161

> <r_lp_tautomer_probability>
1

> <s_lp_Force_Field>
OPLS_2005

> <r_lp_Energy>
30.579125

> <b_lp_Chiralities_Consistent>
1

> <s_lp_Variant>
36679-1

> <s_i_glide_gridfile>
glide-grid_3max

> <i_i_glide_lignum>
19

> <i_i_glide_rotatable_bonds>
7

> <r_i_docking_score>
-7.68528992803862

> <r_i_glide_ligand_efficiency>
-0.320220413668276

> <r_i_glide_ligand_efficiency_sa>
-0.923675507054965

> <r_i_glide_ligand_efficiency_ln>
-1.83944253475513

> <r_i_glide_gscore>
-7.68528992803862

> <r_i_glide_lipo>
-1.78142142725605

> <r_i_glide_hbond>
-0.309591537630542

> <r_i_glide_metal>
-2.3

> <r_i_glide_rewards>
-1.53310789662751

> <r_i_glide_evdw>
-19.2513465881348

> <r_i_glide_ecoul>
-10.3548555374146

> <r_i_glide_erotb>
0.909744760555152

> <r_i_glide_esite>
-0.155118167060754

> <r_i_glide_emodel>
-43.4636128649574

> <r_i_glide_energy>
-29.6062021255493

> <r_i_glide_einternal>
7.24142169952393

> <i_i_glide_confnum>
15

> <i_i_glide_posenum>
146

> <r_i_glide_eff_state_penalty>
0

> <i_f3d_flags>
0

> <s_user_duplicate_titles>
36679

> <s_m_subgroup_title>
dock_pv

> <s_m_subgroupid>
dock_pv1

> <b_m_subgroup_collapsed>
0

$$$$
184367
                    3D
 Schrodinger Suite 2021-1.
 46 47  0  0  1  0            999 V2000
   60.3125   28.9151    6.2743 C   0  0  0  0  0  0
   61.5373   28.9803    6.9188 C   0  0  0  0  0  0
   62.6955   28.6944    6.2054 C   0  0  0  0  0  0
   62.6355   28.3677    4.8474 C   0  0  0  0  0  0
   61.3832   28.2573    4.2240 C   0  0  0  0  0  0
   60.2209   28.5150    4.9423 C   0  0  0  0  0  0
   63.8588   28.1151    4.2505 O   0  0  0  0  0  0
   64.1146   28.1689    2.8990 C   0  0  0  0  0  0
   63.4215   27.3962    1.9719 C   0  0  0  0  0  0
   63.8175   27.3651    0.6405 C   0  0  0  0  0  0
   64.8925   28.1246    0.2164 C   0  0  0  0  0  0
   65.6051   28.9120    1.1253 C   0  0  0  0  0  0
   65.2164   28.9126    2.4634 C   0  0  0  0  0  0
   66.7458   29.6527    0.7939 N   0  0  0  0  0  0
   67.1963   30.0057   -0.4161 C   0  0  0  0  0  0
   66.6180   29.7150   -1.4588 O   0  0  0  0  0  0
   68.4802   30.8393   -0.4401 C   0  0  0  0  0  0
   69.6833   30.0440   -0.9804 C   0  0  0  0  0  0
   71.0199   30.8040   -0.8842 C   0  0  0  0  0  0
   71.1101   32.0310   -1.8106 C   0  0  0  0  0  0
   72.5331   32.6223   -1.8705 C   0  0  0  0  0  0
   72.6665   33.9322   -2.6727 C   0  0  0  0  0  0
   72.1980   33.7185   -4.4157 S   0  0  0  0  0  0
   59.4181   29.1374    6.8309 H   0  0  0  0  0  0
   61.5720   29.2502    7.9648 H   0  0  0  0  0  0
   63.6538   28.7430    6.7023 H   0  0  0  0  0  0
   61.2651   27.9989    3.1871 H   0  0  0  0  0  0
   59.2539   28.4374    4.4661 H   0  0  0  0  0  0
   62.6154   26.7575    2.2902 H   0  0  0  0  0  0
   63.3039   26.7429   -0.0741 H   0  0  0  0  0  0
   65.1746   28.0344   -0.8155 H   0  0  0  0  0  0
   65.8002   29.4599    3.1847 H   0  0  0  0  0  0
   67.3458   29.8842    1.5726 H   0  0  0  0  0  0
   68.7055   31.2010    0.5648 H   0  0  0  0  0  0
   68.2984   31.7247   -1.0480 H   0  0  0  0  0  0
   69.4975   29.7499   -2.0153 H   0  0  0  0  0  0
   69.7832   29.1123   -0.4212 H   0  0  0  0  0  0
   71.8291   30.1138   -1.1265 H   0  0  0  0  0  0
   71.1991   31.1076    0.1488 H   0  0  0  0  0  0
   70.4095   32.7973   -1.4754 H   0  0  0  0  0  0
   70.7953   31.7414   -2.8135 H   0  0  0  0  0  0
   73.2166   31.8781   -2.2832 H   0  0  0  0  0  0
   72.8838   32.8076   -0.8542 H   0  0  0  0  0  0
   73.6984   34.2836   -2.6368 H   0  0  0  0  0  0
   72.0509   34.7184   -2.2336 H   0  0  0  0  0  0
   70.9913   34.2798   -4.3007 H   0  0  0  0  0  0
  1  6  1  0  0  0
  1  2  2  0  0  0
  1 24  1  0  0  0
  2  3  1  0  0  0
  2 25  1  0  0  0
  3  4  2  0  0  0
  3 26  1  0  0  0
  4  5  1  0  0  0
  4  7  1  0  0  0
  5  6  2  0  0  0
  5 27  1  0  0  0
  6 28  1  0  0  0
  7  8  1  0  0  0
  8 13  1  0  0  0
  8  9  2  0  0  0
  9 10  1  0  0  0
  9 29  1  0  0  0
 10 11  2  0  0  0
 10 30  1  0  0  0
 11 12  1  0  0  0
 11 31  1  0  0  0
 12 13  2  0  0  0
 12 14  1  0  0  0
 13 32  1  0  0  0
 14 15  1  0  0  0
 14 33  1  0  0  0
 15 16  2  0  0  0
 15 17  1  0  0  0
 17 18  1  0  0  0
 17 34  1  0  0  0
 17 35  1  0  0  0
 18 19  1  0  0  0
 18 36  1  0  0  0
 18 37  1  0  0  0
 19 20  1  0  0  0
 19 38  1  0  0  0
 19 39  1  0  0  0
 20 21  1  0  0  0
 20 40  1  0  0  0
 20 41  1  0  0  0
 21 22  1  0  0  0
 21 42  1  0  0  0
 21 43  1  0  0  0
 22 23  1  0  0  0
 22 44  1  0  0  0
 22 45  1  0  0  0
 23 46  1  0  0  0
M  END
> <s_m_entry_id>
52619

> <s_m_entry_name>
ligand_docking-pose.44

> <s_m_Source_Path>
/home/csk/Desktop/cluster/DUD-E-result/hdac2

> <s_m_Source_File>
ligand_docking-pose.sdf

> <i_m_Source_File_Index>
44

> <i_lp_mmshare_version>
53161

> <r_lp_tautomer_probability>
1

> <s_lp_Force_Field>
OPLS_2005

> <r_lp_Energy>
18.111376

> <b_lp_Chiralities_Consistent>
1

> <s_lp_Variant>
184367-1

> <s_i_glide_gridfile>
glide-grid_3max

> <i_i_glide_lignum>
268

> <i_i_glide_rotatable_bonds>
11

> <r_i_docking_score>
-7.68106139572282

> <r_i_glide_ligand_efficiency>
-0.333959191118383

> <r_i_glide_ligand_efficiency_sa>
-0.949735515246879

> <r_i_glide_ligand_efficiency_ln>
-1.85735029349982

> <r_i_glide_gscore>
-7.68106139572282

> <r_i_glide_lipo>
-3.22955671144087

> <r_i_glide_hbond>
-0.0953155334751167

> <r_i_glide_metal>
-2.3

> <r_i_glide_rewards>
-1.51214662656052

> <r_i_glide_evdw>
-19.0071296691895

> <r_i_glide_ecoul>
-7.74204397201538

> <r_i_glide_erotb>
1.73159642506803

> <r_i_glide_esite>
-0.163975870052564

> <r_i_glide_emodel>
-21.9823916222942

> <r_i_glide_energy>
-26.7491736412048

> <r_i_glide_einternal>
10.0624074935913

> <i_i_glide_confnum>
119

> <i_i_glide_posenum>
339

> <r_i_glide_eff_state_penalty>
0

> <i_f3d_flags>
0

> <s_user_duplicate_titles>
184367

> <s_m_subgroup_title>
dock_pv

> <s_m_subgroupid>
dock_pv1

> <b_m_subgroup_collapsed>
0

$$$$
318027
                    3D
 Schrodinger Suite 2021-1.
 46 47  0  0  1  0            999 V2000
   74.9181   32.0656   -1.6082 C   0  0  0  0  0  0
   74.2674   33.4240   -1.2117 C   0  0  0  0  0  0
   75.1024   34.0068   -0.0398 C   0  0  0  0  0  0
   74.3379   34.4140   -2.4197 C   0  0  0  0  0  0
   73.5303   34.0287   -3.6867 C   0  0  0  0  0  0
   73.5275   35.1300   -4.7366 C   0  0  0  0  0  0
   74.4406   35.0950   -5.7942 C   0  0  0  0  0  0
   74.4430   36.1144   -6.7434 C   0  0  0  0  0  0
   73.5342   37.1654   -6.6306 C   0  0  0  0  0  0
   72.6180   37.2037   -5.5810 C   0  0  0  0  0  0
   72.6134   36.1830   -4.6337 C   0  0  0  0  0  0
   72.7806   33.2843   -0.7521 C   0  0  0  0  0  0
   72.2179   34.2682   -0.2787 O   0  0  0  0  0  0
   72.1866   32.0854   -0.9193 N   0  0  0  0  0  0
   70.8663   31.6621   -0.6900 C   0  0  0  0  0  0
   70.7205   30.2894   -0.6056 C   0  0  0  0  0  0
   69.4696   29.7150   -0.4499 C   0  0  0  0  0  0
   68.3174   30.4851   -0.3629 C   0  0  0  0  0  0
   68.4620   31.8803   -0.4376 C   0  0  0  0  0  0
   69.7254   32.4714   -0.6099 C   0  0  0  0  0  0
   66.9665   29.7971   -0.2478 C   0  0  0  0  0  0
   66.2180   29.7150   -1.2160 O   0  0  0  0  0  0
   66.6180   29.3150    0.9582 N   0  0  0  0  0  0
   65.3779   28.6707    1.1102 O   0  0  0  0  0  0
   75.9474   32.2014   -1.9433 H   0  0  0  0  0  0
   74.9514   31.3721   -0.7650 H   0  0  0  0  0  0
   74.3852   31.5659   -2.4159 H   0  0  0  0  0  0
   76.1464   34.1473   -0.3233 H   0  0  0  0  0  0
   74.7316   34.9785    0.2913 H   0  0  0  0  0  0
   75.0964   33.3455    0.8299 H   0  0  0  0  0  0
   75.3813   34.5528   -2.7089 H   0  0  0  0  0  0
   74.0099   35.4012   -2.0856 H   0  0  0  0  0  0
   72.4920   33.8038   -3.4392 H   0  0  0  0  0  0
   73.9258   33.1132   -4.1270 H   0  0  0  0  0  0
   75.1519   34.2862   -5.8792 H   0  0  0  0  0  0
   75.1486   36.0913   -7.5617 H   0  0  0  0  0  0
   73.5381   37.9564   -7.3665 H   0  0  0  0  0  0
   71.9123   38.0185   -5.5027 H   0  0  0  0  0  0
   71.9047   36.2155   -3.8185 H   0  0  0  0  0  0
   72.8148   31.3425   -1.1848 H   0  0  0  0  0  0
   71.5873   29.6505   -0.6838 H   0  0  0  0  0  0
   69.4180   28.6392   -0.4160 H   0  0  0  0  0  0
   67.5905   32.5149   -0.4160 H   0  0  0  0  0  0
   69.8066   33.5412   -0.7110 H   0  0  0  0  0  0
   67.2239   29.2467    1.7698 H   0  0  0  0  0  0
   65.6066   27.7372    1.1593 H   0  0  0  0  0  0
  1  2  1  0  0  0
  1 25  1  0  0  0
  1 26  1  0  0  0
  1 27  1  0  0  0
  2  3  1  0  0  0
  2  4  1  0  0  0
  2 12  1  0  0  0
  3 28  1  0  0  0
  3 29  1  0  0  0
  3 30  1  0  0  0
  4  5  1  0  0  0
  4 31  1  0  0  0
  4 32  1  0  0  0
  5  6  1  0  0  0
  5 33  1  0  0  0
  5 34  1  0  0  0
  6 11  1  0  0  0
  6  7  2  0  0  0
  7  8  1  0  0  0
  7 35  1  0  0  0
  8  9  2  0  0  0
  8 36  1  0  0  0
  9 10  1  0  0  0
  9 37  1  0  0  0
 10 11  2  0  0  0
 10 38  1  0  0  0
 11 39  1  0  0  0
 12 13  2  0  0  0
 12 14  1  0  0  0
 14 15  1  0  0  0
 14 40  1  0  0  0
 15 20  1  0  0  0
 15 16  2  0  0  0
 16 17  1  0  0  0
 16 41  1  0  0  0
 17 18  2  0  0  0
 17 42  1  0  0  0
 18 19  1  0  0  0
 18 21  1  0  0  0
 19 20  2  0  0  0
 19 43  1  0  0  0
 20 44  1  0  0  0
 21 22  2  0  0  0
 21 23  1  0  0  0
 23 24  1  0  0  0
 23 45  1  0  0  0
 24 46  1  0  0  0
M  END
> <s_m_entry_id>
52620

> <s_m_entry_name>
ligand_docking-pose.45

> <s_m_Source_Path>
/home/csk/Desktop/cluster/DUD-E-result/hdac2

> <s_m_Source_File>
ligand_docking-pose.sdf

> <i_m_Source_File_Index>
45

> <i_lp_mmshare_version>
53161

> <r_lp_tautomer_probability>
1

> <s_lp_Force_Field>
OPLS_2005

> <r_lp_Energy>
33.19263

> <b_lp_Chiralities_Consistent>
1

> <s_lp_Variant>
318027-1

> <s_i_glide_gridfile>
glide-grid_3max

> <i_i_glide_lignum>
335

> <i_i_glide_rotatable_bonds>
9

> <r_i_docking_score>
-7.64663495804749

> <r_i_glide_ligand_efficiency>
-0.318609789918645

> <r_i_glide_ligand_efficiency_sa>
-0.919029664238225

> <r_i_glide_ligand_efficiency_ln>
-1.83019062667526

> <r_i_glide_gscore>
-7.64663495804749

> <r_i_glide_lipo>
-1.96274987507273

> <r_i_glide_hbond>
-0.223304011725682

> <r_i_glide_metal>
-2.3

> <r_i_glide_rewards>
-1.43039114651971

> <r_i_glide_evdw>
-22.2448577880859

> <r_i_glide_ecoul>
-11.1372032165527

> <r_i_glide_erotb>
1.23231364121826

> <r_i_glide_esite>
-0.179680194060424

> <r_i_glide_emodel>
-45.3826991591495

> <r_i_glide_energy>
-33.3820610046387

> <r_i_glide_einternal>
8.1606559753418

> <i_i_glide_confnum>
29

> <i_i_glide_posenum>
239

> <r_i_glide_eff_state_penalty>
0

> <i_f3d_flags>
0

> <s_user_duplicate_titles>
318027

> <s_m_subgroup_title>
dock_pv

> <s_m_subgroupid>
dock_pv1

> <b_m_subgroup_collapsed>
0

$$$$
36434
                    3D
 Schrodinger Suite 2021-1.
 50 52  0  0  1  0            999 V2000
   61.4502   28.5157    6.3448 C   0  0  0  0  0  0
   62.8114   28.3388    6.5660 C   0  0  0  0  0  0
   63.6620   28.1152    5.4952 C   0  0  0  0  0  0
   63.1891   28.1150    4.1697 C   0  0  0  0  0  0
   61.8030   28.1847    3.9839 C   0  0  0  0  0  0
   60.9390   28.4207    5.0536 C   0  0  0  0  0  0
   64.1472   28.1256    3.0065 C   0  0  0  0  0  0
   65.4181   28.6706    3.1837 C   0  0  0  0  0  0
   66.1551   29.1263    2.1175 C   0  0  0  0  0  0
   65.7606   28.8700    0.8091 C   0  0  0  0  0  0
   64.5892   28.1258    0.6056 C   0  0  0  0  0  0
   63.7932   27.7638    1.6993 C   0  0  0  0  0  0
   66.6180   29.3481   -0.3379 C   0  0  0  0  0  0
   66.2180   29.3151   -1.4959 O   0  0  0  0  0  0
   67.8749   29.7161   -0.0239 N   0  0  0  0  0  0
   69.0058   29.8651   -0.9451 C   0  0  0  0  0  0
   70.0037   30.9823   -0.5393 C   0  0  2  0  0  0
   69.7283   32.2521   -1.3587 C   0  0  0  0  0  0
   70.6960   33.3921   -1.0153 C   0  0  0  0  0  0
   72.2200   33.0625   -0.9992 C   0  0  1  0  0  0
   72.4449   31.6867   -0.3069 C   0  0  0  0  0  0
   71.4751   30.6147   -0.8326 C   0  0  0  0  0  0
   72.8645   33.0499   -2.4175 C   0  0  0  0  0  0
   73.9725   32.5300   -2.5666 O   0  0  0  0  0  0
   72.2023   33.6500   -3.4280 N   0  0  0  0  0  0
   72.7735   33.6552   -4.7118 O   0  0  0  0  0  0
   60.7799   28.6612    7.1795 H   0  0  0  0  0  0
   63.2242   28.3265    7.5565 H   0  0  0  0  0  0
   64.7115   27.9852    5.7119 H   0  0  0  0  0  0
   61.3790   28.1157    2.9963 H   0  0  0  0  0  0
   59.8739   28.4939    4.8848 H   0  0  0  0  0  0
   65.8178   28.9147    4.1538 H   0  0  0  0  0  0
   67.0314   29.7048    2.3474 H   0  0  0  0  0  0
   64.2667   27.8604   -0.3926 H   0  0  0  0  0  0
   62.8638   27.2520    1.5222 H   0  0  0  0  0  0
   68.1624   29.5211    0.9312 H   0  0  0  0  0  0
   68.7259   29.9164   -2.0003 H   0  0  0  0  0  0
   69.5292   28.9138   -0.8671 H   0  0  0  0  0  0
   69.9076   31.1980    0.5278 H   0  0  0  0  0  0
   68.6947   32.5699   -1.2162 H   0  0  0  0  0  0
   69.8188   32.0140   -2.4147 H   0  0  0  0  0  0
   70.4722   33.7146   -0.0032 H   0  0  0  0  0  0
   70.4889   34.2846   -1.6160 H   0  0  0  0  0  0
   72.8260   33.8170   -0.4948 H   0  0  0  0  0  0
   73.4903   31.3740   -0.3597 H   0  0  0  0  0  0
   72.3623   31.8187    0.7733 H   0  0  0  0  0  0
   71.7321   29.6457   -0.4167 H   0  0  0  0  0  0
   71.6037   30.5150   -1.9074 H   0  0  0  0  0  0
   71.3383   34.1673   -3.3729 H   0  0  0  0  0  0
   73.1334   34.5431   -4.7993 H   0  0  0  0  0  0
  1  6  1  0  0  0
  1  2  2  0  0  0
  1 27  1  0  0  0
  2  3  1  0  0  0
  2 28  1  0  0  0
  3  4  2  0  0  0
  3 29  1  0  0  0
  4  5  1  0  0  0
  4  7  1  0  0  0
  5  6  2  0  0  0
  5 30  1  0  0  0
  6 31  1  0  0  0
  7 12  1  0  0  0
  7  8  2  0  0  0
  8  9  1  0  0  0
  8 32  1  0  0  0
  9 10  2  0  0  0
  9 33  1  0  0  0
 10 11  1  0  0  0
 10 13  1  0  0  0
 11 12  2  0  0  0
 11 34  1  0  0  0
 12 35  1  0  0  0
 13 14  2  0  0  0
 13 15  1  0  0  0
 15 16  1  0  0  0
 15 36  1  0  0  0
 16 17  1  0  0  0
 16 37  1  0  0  0
 16 38  1  0  0  0
 17 22  1  0  0  0
 17 18  1  0  0  0
 17 39  1  0  0  0
 18 19  1  0  0  0
 18 40  1  0  0  0
 18 41  1  0  0  0
 19 20  1  0  0  0
 19 42  1  0  0  0
 19 43  1  0  0  0
 20 21  1  0  0  0
 20 23  1  0  0  0
 20 44  1  0  0  0
 21 22  1  0  0  0
 21 45  1  0  0  0
 21 46  1  0  0  0
 22 47  1  0  0  0
 22 48  1  0  0  0
 23 24  2  0  0  0
 23 25  1  0  0  0
 25 26  1  0  0  0
 25 49  1  0  0  0
 26 50  1  0  0  0
M  END
> <s_m_entry_id>
52622

> <s_m_entry_name>
ligand_docking-pose.47

> <s_m_Source_Path>
/home/csk/Desktop/cluster/DUD-E-result/hdac2

> <s_m_Source_File>
ligand_docking-pose.sdf

> <i_m_Source_File_Index>
47

> <i_lp_mmshare_version>
53161

> <r_lp_tautomer_probability>
1

> <s_lp_Force_Field>
OPLS_2005

> <r_lp_Energy>
37.142341

> <b_lp_Chiralities_Consistent>
1

> <s_lp_Variant>
36434-1

> <s_i_glide_gridfile>
glide-grid_3max

> <i_i_glide_lignum>
93

> <i_i_glide_rotatable_bonds>
8

> <r_i_docking_score>
-7.63379456804565

> <r_i_glide_ligand_efficiency>
-0.293607483386371

> <r_i_glide_ligand_efficiency_sa>
-0.869811014242465

> <r_i_glide_ligand_efficiency_ln>
-1.79277160578249

> <r_i_glide_gscore>
-7.63379456804565

> <r_i_glide_lipo>
-2.75966460858523

> <r_i_glide_hbond>
0

> <r_i_glide_metal>
-2.3

> <r_i_glide_rewards>
-1.3100695904993

> <r_i_glide_evdw>
-12.9472036361694

> <r_i_glide_ecoul>
-10.2584505081177

> <r_i_glide_erotb>
1.07558996910591

> <r_i_glide_esite>
-0.153522580040903

> <r_i_glide_emodel>
-43.5561997504197

> <r_i_glide_energy>
-23.2056541442871

> <r_i_glide_einternal>
7.95573759078979

> <i_i_glide_confnum>
28

> <i_i_glide_posenum>
166

> <r_i_glide_eff_state_penalty>
0

> <i_f3d_flags>
0

> <s_user_duplicate_titles>
36434

> <s_m_subgroup_title>
dock_pv

> <s_m_subgroupid>
dock_pv1

> <b_m_subgroup_collapsed>
0

$$$$
298973
                    3D
 Schrodinger Suite 2021-1.
 37 38  0  0  1  0            999 V2000
   73.0782   32.0412   -1.2160 C   0  0  0  0  0  0
   72.4924   33.2693   -1.5181 C   0  0  0  0  0  0
   71.1177   33.4697   -1.3898 C   0  0  0  0  0  0
   70.3353   32.3974   -0.9391 C   0  0  0  0  0  0
   70.9171   31.1250   -0.7112 C   0  0  0  0  0  0
   72.3029   30.9532   -0.8160 C   0  0  0  0  0  0
   70.0348   30.1399   -0.4172 N   0  0  0  0  0  0
   68.8142   30.5847   -0.3953 C   0  0  0  0  0  0
   68.6225   32.3099   -0.5240 S   0  0  0  0  0  0
   67.8304   29.7150   -0.0160 N   0  0  0  0  0  0
   66.4923   29.7033   -0.1053 C   0  0  0  0  0  0
   65.8180   30.4416   -0.8160 O   0  0  0  0  0  0
   65.8177   28.5712    0.6994 C   0  0  0  0  0  0
   64.6672   28.9886    1.6556 C   0  0  0  0  0  0
   64.2428   27.8282    2.5975 C   0  0  0  0  0  0
   62.8011   27.8664    3.1580 C   0  0  0  0  0  0
   62.6084   28.3177    4.6171 C   0  0  0  0  0  0
   61.1267   28.3114    5.0724 C   0  0  0  0  0  0
   61.0181   28.9150    6.7841 S   0  0  0  0  0  0
   74.1490   31.9239   -1.3096 H   0  0  0  0  0  0
   73.1220   34.0856   -1.8428 H   0  0  0  0  0  0
   70.6805   34.4311   -1.6160 H   0  0  0  0  0  0
   72.7623   29.9956   -0.6203 H   0  0  0  0  0  0
   68.2186   28.9537    0.5306 H   0  0  0  0  0  0
   66.5760   28.0634    1.2973 H   0  0  0  0  0  0
   65.4545   27.8298   -0.0144 H   0  0  0  0  0  0
   63.8180   29.3018    1.0532 H   0  0  0  0  0  0
   64.9559   29.8501    2.2572 H   0  0  0  0  0  0
   64.9669   27.7150    3.4058 H   0  0  0  0  0  0
   64.3126   26.9150    2.0095 H   0  0  0  0  0  0
   62.3465   26.8867    3.0351 H   0  0  0  0  0  0
   62.2180   28.5150    2.5311 H   0  0  0  0  0  0
   63.0121   29.3150    4.7176 H   0  0  0  0  0  0
   63.2076   27.7150    5.2955 H   0  0  0  0  0  0
   60.6548   27.3292    5.0313 H   0  0  0  0  0  0
   60.5054   28.9150    4.4167 H   0  0  0  0  0  0
   60.1769   27.9483    7.1840 H   0  0  0  0  0  0
  1  6  1  0  0  0
  1  2  2  0  0  0
  1 20  1  0  0  0
  2  3  1  0  0  0
  2 21  1  0  0  0
  3  4  2  0  0  0
  3 22  1  0  0  0
  4  9  1  0  0  0
  4  5  1  0  0  0
  5  6  2  0  0  0
  5  7  1  0  0  0
  6 23  1  0  0  0
  7  8  2  0  0  0
  8  9  1  0  0  0
  8 10  1  0  0  0
 10 11  1  0  0  0
 10 24  1  0  0  0
 11 12  2  0  0  0
 11 13  1  0  0  0
 13 14  1  0  0  0
 13 25  1  0  0  0
 13 26  1  0  0  0
 14 15  1  0  0  0
 14 27  1  0  0  0
 14 28  1  0  0  0
 15 16  1  0  0  0
 15 29  1  0  0  0
 15 30  1  0  0  0
 16 17  1  0  0  0
 16 31  1  0  0  0
 16 32  1  0  0  0
 17 18  1  0  0  0
 17 33  1  0  0  0
 17 34  1  0  0  0
 18 19  1  0  0  0
 18 35  1  0  0  0
 18 36  1  0  0  0
 19 37  1  0  0  0
M  END
> <s_m_entry_id>
52623

> <s_m_entry_name>
ligand_docking-pose.48

> <s_m_Source_Path>
/home/csk/Desktop/cluster/DUD-E-result/hdac2

> <s_m_Source_File>
ligand_docking-pose.sdf

> <i_m_Source_File_Index>
48

> <i_lp_mmshare_version>
53161

> <r_lp_tautomer_probability>
1

> <s_lp_Force_Field>
OPLS_2005

> <r_lp_Energy>
6.476537

> <b_lp_Chiralities_Consistent>
1

> <s_lp_Variant>
298973-1

> <s_i_glide_gridfile>
glide-grid_3max

> <i_i_glide_lignum>
63

> <i_i_glide_rotatable_bonds>
9

> <r_i_docking_score>
-7.60395108992807

> <r_i_glide_ligand_efficiency>
-0.400207952101478

> <r_i_glide_ligand_efficiency_sa>
-1.06791555817108

> <r_i_glide_ligand_efficiency_ln>
-1.92776491919137

> <r_i_glide_gscore>
-7.60395108992807

> <r_i_glide_lipo>
-2.85197924102414

> <r_i_glide_hbond>
-0.580091402812875

> <r_i_glide_metal>
-2.3

> <r_i_glide_rewards>
-1.70740156357255

> <r_i_glide_evdw>
-23.4593982696533

> <r_i_glide_ecoul>
-11.292911529541

> <r_i_glide_erotb>
2.95340325658182

> <r_i_glide_esite>
-0.25097549618652

> <r_i_glide_emodel>
-41.9200269934234

> <r_i_glide_energy>
-34.7523097991943

> <r_i_glide_einternal>
11.6010646820068

> <i_i_glide_confnum>
5

> <i_i_glide_posenum>
310

> <r_i_glide_eff_state_penalty>
0

> <i_f3d_flags>
0

> <s_user_duplicate_titles>
298973

> <s_m_subgroup_title>
dock_pv

> <s_m_subgroupid>
dock_pv1

> <b_m_subgroup_collapsed>
0

$$$$
235694
                    3D
 Schrodinger Suite 2021-1.
 46 48  0  0  1  0            999 V2000
   73.1068   39.0215    2.6585 C   0  0  0  0  0  0
   73.4973   39.1944    3.9841 C   0  0  0  0  0  0
   74.2180   38.2185    4.6735 C   0  0  0  0  0  0
   74.5378   37.0518    3.9708 C   0  0  0  0  0  0
   74.1631   36.8492    2.6050 C   0  0  0  0  0  0
   73.4315   37.8603    1.9580 C   0  0  0  0  0  0
   74.6709   35.5643    2.1912 C   0  0  0  0  0  0
   75.3030   35.0490    3.3107 C   0  0  0  0  0  0
   75.2243   35.9252    4.3606 N   0  0  0  0  0  0
   74.5494   34.9521    0.8044 C   0  0  0  0  0  0
   74.7679   33.4196    0.7682 C   0  0  0  0  0  0
   74.7000   32.7663   -0.6275 C   0  0  0  0  0  0
   73.5328   33.1809   -1.3986 N   0  0  0  0  0  0
   72.2672   32.6128   -1.1994 C   0  0  0  0  0  0
   71.1761   33.3901   -1.5753 C   0  0  0  0  0  0
   69.8834   32.9372   -1.3490 C   0  0  0  0  0  0
   69.6565   31.6790   -0.7959 C   0  0  0  0  0  0
   70.7550   30.8855   -0.4429 C   0  0  0  0  0  0
   72.0547   31.3520   -0.6315 C   0  0  0  0  0  0
   68.2564   31.2459   -0.6136 C   0  0  0  0  0  0
   67.8504   30.0228   -0.2218 C   0  0  0  0  0  0
   66.4599   29.6934   -0.0560 C   0  0  0  0  0  0
   65.5866   30.1150   -0.8160 O   0  0  0  0  0  0
   66.2180   28.9145    1.0091 N   0  0  0  0  0  0
   64.8953   28.5280    1.2790 O   0  0  0  0  0  0
   75.6434   35.7332    5.2597 H   0  0  0  0  0  0
   72.5526   39.8027    2.1593 H   0  0  0  0  0  0
   73.2373   40.1072    4.5002 H   0  0  0  0  0  0
   74.5097   38.3645    5.7035 H   0  0  0  0  0  0
   73.1316   37.7427    0.9274 H   0  0  0  0  0  0
   75.8314   34.1150    3.4434 H   0  0  0  0  0  0
   75.2525   35.4347    0.1247 H   0  0  0  0  0  0
   73.5563   35.1703    0.4105 H   0  0  0  0  0  0
   74.0323   32.9411    1.4168 H   0  0  0  0  0  0
   75.7458   33.1784    1.1842 H   0  0  0  0  0  0
   74.7466   31.6818   -0.5276 H   0  0  0  0  0  0
   75.5704   33.0551   -1.2179 H   0  0  0  0  0  0
   73.5297   34.1550   -1.6606 H   0  0  0  0  0  0
   71.3217   34.3683   -2.0103 H   0  0  0  0  0  0
   69.0566   33.5792   -1.6161 H   0  0  0  0  0  0
   70.6180   29.9053   -0.0161 H   0  0  0  0  0  0
   72.8801   30.7220   -0.3371 H   0  0  0  0  0  0
   67.5072   32.0038   -0.8064 H   0  0  0  0  0  0
   68.5623   29.2426   -0.0160 H   0  0  0  0  0  0
   66.9014   28.5215    1.6462 H   0  0  0  0  0  0
   64.8694   27.6018    1.0214 H   0  0  0  0  0  0
  1  6  1  0  0  0
  1  2  2  0  0  0
  1 27  1  0  0  0
  2  3  1  0  0  0
  2 28  1  0  0  0
  3  4  2  0  0  0
  3 29  1  0  0  0
  4  9  1  0  0  0
  4  5  1  0  0  0
  5  6  2  0  0  0
  5  7  1  0  0  0
  6 30  1  0  0  0
  7  8  2  0  0  0
  7 10  1  0  0  0
  8  9  1  0  0  0
  8 31  1  0  0  0
  9 26  1  0  0  0
 10 11  1  0  0  0
 10 32  1  0  0  0
 10 33  1  0  0  0
 11 12  1  0  0  0
 11 34  1  0  0  0
 11 35  1  0  0  0
 12 13  1  0  0  0
 12 36  1  0  0  0
 12 37  1  0  0  0
 13 14  1  0  0  0
 13 38  1  0  0  0
 14 19  1  0  0  0
 14 15  2  0  0  0
 15 16  1  0  0  0
 15 39  1  0  0  0
 16 17  2  0  0  0
 16 40  1  0  0  0
 17 18  1  0  0  0
 17 20  1  0  0  0
 18 19  2  0  0  0
 18 41  1  0  0  0
 19 42  1  0  0  0
 20 21  2  0  0  0
 20 43  1  0  0  0
 21 22  1  0  0  0
 21 44  1  0  0  0
 22 23  2  0  0  0
 22 24  1  0  0  0
 24 25  1  0  0  0
 24 45  1  0  0  0
 25 46  1  0  0  0
M  END
> <s_m_entry_id>
52624

> <s_m_entry_name>
ligand_docking-pose.49

> <s_m_Source_Path>
/home/csk/Desktop/cluster/DUD-E-result/hdac2

> <s_m_Source_File>
ligand_docking-pose.sdf

> <i_m_Source_File_Index>
49

> <i_lp_mmshare_version>
53161

> <r_lp_tautomer_probability>
1

> <s_lp_Force_Field>
OPLS_2005

> <r_lp_Energy>
20.873435

> <b_lp_Chiralities_Consistent>
1

> <s_lp_Variant>
235694-1

> <s_i_glide_gridfile>
glide-grid_3max

> <i_i_glide_lignum>
31

> <i_i_glide_rotatable_bonds>
9

> <r_i_docking_score>
-7.55930779263907

> <r_i_glide_ligand_efficiency>
-0.302372311705563

> <r_i_glide_ligand_efficiency_sa>
-0.884142002022848

> <r_i_glide_ligand_efficiency_ln>
-1.79178248102982

> <r_i_glide_gscore>
-7.55930779263907

> <r_i_glide_lipo>
-1.33297495080573

> <r_i_glide_hbond>
-0.279632301337485

> <r_i_glide_metal>
-2.3

> <r_i_glide_rewards>
-1.47233374467092

> <r_i_glide_evdw>
-32.0995254516602

> <r_i_glide_ecoul>
-10.8800048828125

> <r_i_glide_erotb>
1.17439303429318

> <r_i_glide_esite>
-0.111782825113236

> <r_i_glide_emodel>
-63.6531729378819

> <r_i_glide_energy>
-42.9795303344727

> <r_i_glide_einternal>
6.63880920410156

> <i_i_glide_confnum>
5

> <i_i_glide_posenum>
9

> <r_i_glide_eff_state_penalty>
0

> <i_f3d_flags>
0

> <s_user_duplicate_titles>
235694

> <s_m_subgroup_title>
dock_pv

> <s_m_subgroupid>
dock_pv1

> <b_m_subgroup_collapsed>
0

$$$$
235726
                    3D
 Schrodinger Suite 2021-1.
 49 51  0  0  1  0            999 V2000
   75.0179   34.8789    6.7824 C   0  0  0  0  0  0
   75.1622   36.0730    7.4835 C   0  0  0  0  0  0
   74.9457   37.3113    6.8791 C   0  0  0  0  0  0
   74.5834   37.3016    5.5275 C   0  0  0  0  0  0
   74.4173   36.0917    4.7834 C   0  0  0  0  0  0
   74.6346   34.8700    5.4428 C   0  0  0  0  0  0
   74.0361   36.4518    3.4381 C   0  0  0  0  0  0
   74.0044   37.8345    3.4211 C   0  0  0  0  0  0
   74.3216   38.3357    4.6581 N   0  0  0  0  0  0
   73.7155   35.5069    2.2966 C   0  0  0  0  0  0
   74.9112   34.6284    1.8682 C   0  0  0  0  0  0
   74.5498   33.4943    0.8880 C   0  0  0  0  0  0
   74.2029   34.0315   -0.4233 N   0  0  1  0  0  0
   73.7840   32.9991   -1.3683 C   0  0  0  0  0  0
   72.3619   32.5163   -1.1069 C   0  0  0  0  0  0
   71.2891   33.3482   -1.4230 C   0  0  0  0  0  0
   69.9841   32.9150   -1.2164 C   0  0  0  0  0  0
   69.7274   31.6372   -0.7213 C   0  0  0  0  0  0
   70.8085   30.8008   -0.4162 C   0  0  0  0  0  0
   72.1200   31.2384   -0.6001 C   0  0  0  0  0  0
   68.3170   31.2263   -0.5487 C   0  0  0  0  0  0
   67.8842   29.9981   -0.1981 C   0  0  0  0  0  0
   66.4867   29.6864   -0.0446 C   0  0  0  0  0  0
   65.6262   30.1141   -0.8127 O   0  0  0  0  0  0
   66.2182   28.9150    1.0193 N   0  0  0  0  0  0
   64.8853   28.5513    1.2739 O   0  0  0  0  0  0
   74.3555   39.3244    4.8594 H   0  0  0  0  0  0
   75.2097   33.9407    7.2854 H   0  0  0  0  0  0
   75.4602   36.0362    8.5218 H   0  0  0  0  0  0
   75.0672   38.2299    7.4343 H   0  0  0  0  0  0
   74.5308   33.9326    4.9156 H   0  0  0  0  0  0
   73.7718   38.5129    2.6125 H   0  0  0  0  0  0
   73.3382   36.0560    1.4330 H   0  0  0  0  0  0
   72.9000   34.8640    2.6161 H   0  0  0  0  0  0
   75.3463   34.1616    2.7515 H   0  0  0  0  0  0
   75.7053   35.2481    1.4489 H   0  0  0  0  0  0
   73.7200   32.9136    1.2944 H   0  0  0  0  0  0
   75.4022   32.8198    0.7852 H   0  0  0  0  0  0
   73.5037   34.7544   -0.3410 H   0  0  0  0  0  0
   74.4933   32.1694   -1.3339 H   0  0  0  0  0  0
   73.8168   33.4257   -2.3717 H   0  0  0  0  0  0
   71.4657   34.3360   -1.8237 H   0  0  0  0  0  0
   69.1721   33.5844   -1.4620 H   0  0  0  0  0  0
   70.6451   29.8060   -0.0338 H   0  0  0  0  0  0
   72.9440   30.5809   -0.3590 H   0  0  0  0  0  0
   67.5841   32.0055   -0.7148 H   0  0  0  0  0  0
   68.5799   29.1968   -0.0191 H   0  0  0  0  0  0
   66.8865   28.5152    1.6669 H   0  0  0  0  0  0
   64.8469   27.6252    1.0174 H   0  0  0  0  0  0
  1  6  1  0  0  0
  1  2  2  0  0  0
  1 28  1  0  0  0
  2  3  1  0  0  0
  2 29  1  0  0  0
  3  4  2  0  0  0
  3 30  1  0  0  0
  4  9  1  0  0  0
  4  5  1  0  0  0
  5  6  2  0  0  0
  5  7  1  0  0  0
  6 31  1  0  0  0
  7  8  2  0  0  0
  7 10  1  0  0  0
  8  9  1  0  0  0
  8 32  1  0  0  0
  9 27  1  0  0  0
 10 11  1  0  0  0
 10 33  1  0  0  0
 10 34  1  0  0  0
 11 12  1  0  0  0
 11 35  1  0  0  0
 11 36  1  0  0  0
 12 13  1  0  0  0
 12 37  1  0  0  0
 12 38  1  0  0  0
 13 14  1  0  0  0
 13 39  1  0  0  0
 14 15  1  0  0  0
 14 40  1  0  0  0
 14 41  1  0  0  0
 15 20  1  0  0  0
 15 16  2  0  0  0
 16 17  1  0  0  0
 16 42  1  0  0  0
 17 18  2  0  0  0
 17 43  1  0  0  0
 18 19  1  0  0  0
 18 21  1  0  0  0
 19 20  2  0  0  0
 19 44  1  0  0  0
 20 45  1  0  0  0
 21 22  2  0  0  0
 21 46  1  0  0  0
 22 23  1  0  0  0
 22 47  1  0  0  0
 23 24  2  0  0  0
 23 25  1  0  0  0
 25 26  1  0  0  0
 25 48  1  0  0  0
 26 49  1  0  0  0
M  END
> <s_m_entry_id>
52625

> <s_m_entry_name>
ligand_docking-pose.50

> <s_m_Source_Path>
/home/csk/Desktop/cluster/DUD-E-result/hdac2

> <s_m_Source_File>
ligand_docking-pose.sdf

> <i_m_Source_File_Index>
50

> <i_lp_mmshare_version>
53161

> <r_lp_tautomer_probability>
1

> <s_lp_Force_Field>
OPLS_2005

> <r_lp_Energy>
21.935511

> <b_lp_Chiralities_Consistent>
1

> <s_lp_Variant>
235726-1

> <s_i_glide_gridfile>
glide-grid_3max

> <i_i_glide_lignum>
32

> <i_i_glide_rotatable_bonds>
10

> <r_i_docking_score>
-7.47441126173854

> <r_i_glide_ligand_efficiency>
-0.287477356220713

> <r_i_glide_ligand_efficiency_sa>
-0.851650536635087

> <r_i_glide_ligand_efficiency_ln>
-1.75534095927555

> <r_i_glide_gscore>
-7.47441126173854

> <r_i_glide_lipo>
-1.41444660608677

> <r_i_glide_hbond>
-0.26866946364289

> <r_i_glide_metal>
-2.3

> <r_i_glide_rewards>
-1.40163910380674

> <r_i_glide_evdw>
-35.9524002075195

> <r_i_glide_ecoul>
-9.57016181945801

> <r_i_glide_erotb>
1.24807928538972

> <r_i_glide_esite>
-0.104591090297179

> <r_i_glide_emodel>
-67.5506838967904

> <r_i_glide_energy>
-45.5225620269775

> <r_i_glide_einternal>
8.64381122589111

> <i_i_glide_confnum>
6

> <i_i_glide_posenum>
310

> <r_i_glide_eff_state_penalty>
0

> <i_f3d_flags>
0

> <s_user_duplicate_titles>
235726

> <s_m_subgroup_title>
dock_pv

> <s_m_subgroupid>
dock_pv1

> <b_m_subgroup_collapsed>
0

$$$$
87008
                    3D
 Schrodinger Suite 2021-1.
 46 47  0  0  1  0            999 V2000
   72.8661   34.1617   -1.7298 C   0  0  0  0  0  0
   72.0129   32.9709   -1.3345 C   0  0  0  0  0  0
   72.6252   31.7718   -0.9747 C   0  0  0  0  0  0
   71.8868   30.6396   -0.6313 C   0  0  0  0  0  0
   70.4921   30.7574   -0.6271 C   0  0  0  0  0  0
   69.8509   31.9889   -0.9135 C   0  0  0  0  0  0
   70.6233   33.0870   -1.3155 C   0  0  0  0  0  0
   68.4563   31.7741   -0.7121 C   0  0  0  0  0  0
   68.2431   30.4402   -0.4160 C   0  0  0  0  0  0
   69.4803   29.8362   -0.4160 N   0  0  0  0  0  0
   66.9812   29.7541   -0.2739 C   0  0  0  0  0  0
   66.2180   29.7150   -1.2160 O   0  0  0  0  0  0
   66.6180   29.3098    0.9361 N   0  0  0  0  0  0
   65.3658   28.5917    1.2138 C   0  0  0  0  0  0
   64.6438   29.0970    2.4747 C   0  0  0  0  0  0
   63.7111   28.0460    3.1215 C   0  0  0  0  0  0
   62.6271   28.5020    4.1469 C   0  0  0  0  0  0
   62.9997   28.5165    5.6631 C   0  0  0  0  0  0
   61.8347   28.2057    6.6392 C   0  0  0  0  0  0
   61.1619   29.3539    7.4227 C   0  0  0  0  0  0
   61.4181   30.5277    7.1840 O   0  0  0  0  0  0
   60.2861   29.0475    8.3888 N   0  0  0  0  0  0
   60.2180   27.7152    8.8035 O   0  0  0  0  0  0
   69.5834   28.8472   -0.2471 H   0  0  0  0  0  0
   72.3160   35.0999   -1.6457 H   0  0  0  0  0  0
   73.7317   34.2423   -1.0710 H   0  0  0  0  0  0
   73.2295   34.0490   -2.7513 H   0  0  0  0  0  0
   73.7042   31.7000   -0.9853 H   0  0  0  0  0  0
   72.3960   29.7150   -0.4160 H   0  0  0  0  0  0
   70.1472   34.0070   -1.6160 H   0  0  0  0  0  0
   67.6833   32.5126   -0.8155 H   0  0  0  0  0  0
   67.3742   29.1669    1.5982 H   0  0  0  0  0  0
   65.6413   27.5468    1.3332 H   0  0  0  0  0  0
   64.6627   28.5808    0.3772 H   0  0  0  0  0  0
   64.0899   29.9958    2.2133 H   0  0  0  0  0  0
   65.4139   29.3810    3.1842 H   0  0  0  0  0  0
   64.3630   27.3150    3.5839 H   0  0  0  0  0  0
   63.1949   27.5165    2.3178 H   0  0  0  0  0  0
   61.7955   27.8070    4.0197 H   0  0  0  0  0  0
   62.2182   29.4581    3.8512 H   0  0  0  0  0  0
   63.4180   29.4630    5.9840 H   0  0  0  0  0  0
   63.7867   27.7802    5.8343 H   0  0  0  0  0  0
   62.2310   27.5212    7.3921 H   0  0  0  0  0  0
   61.0180   27.7150    6.1129 H   0  0  0  0  0  0
   59.8151   29.6863    9.0128 H   0  0  0  0  0  0
   59.6492   27.2934    8.1408 H   0  0  0  0  0  0
  1  2  1  0  0  0
  1 25  1  0  0  0
  1 26  1  0  0  0
  1 27  1  0  0  0
  2  7  1  0  0  0
  2  3  2  0  0  0
  3  4  1  0  0  0
  3 28  1  0  0  0
  4  5  2  0  0  0
  4 29  1  0  0  0
  5 10  1  0  0  0
  5  6  1  0  0  0
  6  7  2  0  0  0
  6  8  1  0  0  0
  7 30  1  0  0  0
  8  9  2  0  0  0
  8 31  1  0  0  0
  9 10  1  0  0  0
  9 11  1  0  0  0
 10 24  1  0  0  0
 11 12  2  0  0  0
 11 13  1  0  0  0
 13 14  1  0  0  0
 13 32  1  0  0  0
 14 15  1  0  0  0
 14 33  1  0  0  0
 14 34  1  0  0  0
 15 16  1  0  0  0
 15 35  1  0  0  0
 15 36  1  0  0  0
 16 17  1  0  0  0
 16 37  1  0  0  0
 16 38  1  0  0  0
 17 18  1  0  0  0
 17 39  1  0  0  0
 17 40  1  0  0  0
 18 19  1  0  0  0
 18 41  1  0  0  0
 18 42  1  0  0  0
 19 20  1  0  0  0
 19 43  1  0  0  0
 19 44  1  0  0  0
 20 21  2  0  0  0
 20 22  1  0  0  0
 22 23  1  0  0  0
 22 45  1  0  0  0
 23 46  1  0  0  0
M  END
> <s_m_entry_id>
52626

> <s_m_entry_name>
ligand_docking-pose.51

> <s_m_Source_Path>
/home/csk/Desktop/cluster/DUD-E-result/hdac2

> <s_m_Source_File>
ligand_docking-pose.sdf

> <i_m_Source_File_Index>
51

> <i_lp_mmshare_version>
53161

> <r_lp_tautomer_probability>
1

> <s_lp_Force_Field>
OPLS_2005

> <r_lp_Energy>
12.783286

> <b_lp_Chiralities_Consistent>
1

> <s_lp_Variant>
87008-1

> <s_i_glide_gridfile>
glide-grid_3max

> <i_i_glide_lignum>
301

> <i_i_glide_rotatable_bonds>
11

> <r_i_docking_score>
-7.39653096081556

> <r_i_glide_ligand_efficiency>
-0.321588302644155

> <r_i_glide_ligand_efficiency_sa>
-0.914554354040364

> <r_i_glide_ligand_efficiency_ln>
-1.7885482543599

> <r_i_glide_gscore>
-7.39653096081556

> <r_i_glide_lipo>
-2.47862248634127

> <r_i_glide_hbond>
-0.457901004954207

> <r_i_glide_metal>
-2.3

> <r_i_glide_rewards>
0.0500957799065362

> <r_i_glide_evdw>
-23.515645980835

> <r_i_glide_ecoul>
-17.5989017486572

> <r_i_glide_erotb>
1.84947344813321

> <r_i_glide_esite>
-0.243959136219496

> <r_i_glide_emodel>
-40.9156898515708

> <r_i_glide_energy>
-41.1145477294922

> <r_i_glide_einternal>
25.0402584075928

> <i_i_glide_confnum>
84

> <i_i_glide_posenum>
398

> <r_i_glide_eff_state_penalty>
0

> <i_f3d_flags>
0

> <s_user_duplicate_titles>
87008

> <s_m_subgroup_title>
dock_pv

> <s_m_subgroupid>
dock_pv1

> <b_m_subgroup_collapsed>
0

$$$$
86363
                    3D
 Schrodinger Suite 2021-1.
 40 41  0  0  1  0            999 V2000
   69.9770   30.1083   -0.4422 C   0  0  0  0  0  0
   71.3088   30.5149   -0.5133 C   0  0  0  0  0  0
   71.5449   31.8210   -0.9029 C   0  0  0  0  0  0
   70.4840   32.7394   -1.1177 C   0  0  0  0  0  0
   71.1001   33.9133   -1.6653 C   0  0  0  0  0  0
   72.4659   33.7276   -1.6509 C   0  0  0  0  0  0
   72.7284   32.4687   -1.1818 N   0  0  0  0  0  0
   69.1646   32.3366   -0.8160 C   0  0  0  0  0  0
   68.9008   30.9866   -0.5297 C   0  0  0  0  0  0
   67.4799   30.4540   -0.4794 C   0  0  0  0  0  0
   66.6180   30.9150   -1.2160 O   0  0  0  0  0  0
   67.1798   29.4375    0.3430 N   0  0  0  0  0  0
   66.0249   28.5408    0.1930 C   0  0  0  0  0  0
   64.6936   29.1290    0.6548 C   0  0  0  0  0  0
   64.5470   29.2235    2.1804 C   0  0  0  0  0  0
   64.2797   27.8647    2.8605 C   0  0  0  0  0  0
   62.7920   27.5835    3.1076 C   0  0  0  0  0  0
   62.1876   28.1387    4.3840 C   0  0  0  0  0  0
   62.8977   28.5150    5.3175 O   0  0  0  0  0  0
   60.8457   28.1150    4.4106 N   0  0  0  0  0  0
   60.2180   28.5150    5.5840 O   0  0  0  0  0  0
   73.6645   32.0971   -1.0948 H   0  0  0  0  0  0
   69.7732   29.0522   -0.4058 H   0  0  0  0  0  0
   72.1235   29.8131   -0.4160 H   0  0  0  0  0  0
   70.6180   34.8081   -2.0161 H   0  0  0  0  0  0
   73.2780   34.3765   -1.9503 H   0  0  0  0  0  0
   68.3505   33.0386   -0.8868 H   0  0  0  0  0  0
   67.8803   29.1594    1.0307 H   0  0  0  0  0  0
   66.2180   27.6473    0.7840 H   0  0  0  0  0  0
   65.9402   28.1788   -0.8327 H   0  0  0  0  0  0
   63.8697   28.5439    0.2412 H   0  0  0  0  0  0
   64.6179   30.1150    0.2162 H   0  0  0  0  0  0
   63.7181   29.8964    2.3840 H   0  0  0  0  0  0
   65.4372   29.6885    2.6063 H   0  0  0  0  0  0
   64.8636   27.7665    3.7780 H   0  0  0  0  0  0
   64.6180   27.0650    2.2075 H   0  0  0  0  0  0
   62.6180   26.5150    3.1536 H   0  0  0  0  0  0
   62.2180   27.9551    2.2807 H   0  0  0  0  0  0
   60.2076   27.6987    3.7406 H   0  0  0  0  0  0
   59.9091   27.6804    5.9783 H   0  0  0  0  0  0
  1  9  1  0  0  0
  1  2  2  0  0  0
  1 23  1  0  0  0
  2  3  1  0  0  0
  2 24  1  0  0  0
  3  7  1  0  0  0
  3  4  2  0  0  0
  4  5  1  0  0  0
  4  8  1  0  0  0
  5  6  2  0  0  0
  5 25  1  0  0  0
  6  7  1  0  0  0
  6 26  1  0  0  0
  7 22  1  0  0  0
  8  9  2  0  0  0
  8 27  1  0  0  0
  9 10  1  0  0  0
 10 11  2  0  0  0
 10 12  1  0  0  0
 12 13  1  0  0  0
 12 28  1  0  0  0
 13 14  1  0  0  0
 13 29  1  0  0  0
 13 30  1  0  0  0
 14 15  1  0  0  0
 14 31  1  0  0  0
 14 32  1  0  0  0
 15 16  1  0  0  0
 15 33  1  0  0  0
 15 34  1  0  0  0
 16 17  1  0  0  0
 16 35  1  0  0  0
 16 36  1  0  0  0
 17 18  1  0  0  0
 17 37  1  0  0  0
 17 38  1  0  0  0
 18 19  2  0  0  0
 18 20  1  0  0  0
 20 21  1  0  0  0
 20 39  1  0  0  0
 21 40  1  0  0  0
M  END
> <s_m_entry_id>
52627

> <s_m_entry_name>
ligand_docking-pose.52

> <s_m_Source_Path>
/home/csk/Desktop/cluster/DUD-E-result/hdac2

> <s_m_Source_File>
ligand_docking-pose.sdf

> <i_m_Source_File_Index>
52

> <i_lp_mmshare_version>
53161

> <r_lp_tautomer_probability>
1

> <s_lp_Force_Field>
OPLS_2005

> <r_lp_Energy>
11.789779

> <b_lp_Chiralities_Consistent>
1

> <s_lp_Variant>
86363-1

> <s_i_glide_gridfile>
glide-grid_3max

> <i_i_glide_lignum>
12

> <i_i_glide_rotatable_bonds>
10

> <r_i_docking_score>
-7.35843815585239

> <r_i_glide_ligand_efficiency>
-0.350401816945352

> <r_i_glide_ligand_efficiency_sa>
-0.966732043237325

> <r_i_glide_ligand_efficiency_ln>
-1.81935896491016

> <r_i_glide_gscore>
-7.35843815585239

> <r_i_glide_lipo>
-3.09399720873733

> <r_i_glide_hbond>
-0.551609986342629

> <r_i_glide_metal>
-2.3

> <r_i_glide_rewards>
-1.70937459211452

> <r_i_glide_evdw>
-11.4003705978394

> <r_i_glide_ecoul>
-15.8212480545044

> <r_i_glide_erotb>
3.4799709601582

> <r_i_glide_esite>
-0.240221590748489

> <r_i_glide_emodel>
-42.9605288901773

> <r_i_glide_energy>
-27.2216186523438

> <r_i_glide_einternal>
8.52632427215576

> <i_i_glide_confnum>
34

> <i_i_glide_posenum>
197

> <r_i_glide_eff_state_penalty>
0

> <i_f3d_flags>
0

> <s_user_duplicate_titles>
86363

> <s_m_subgroup_title>
dock_pv

> <s_m_subgroupid>
dock_pv1

> <b_m_subgroup_collapsed>
0

$$$$
184358
                    3D
 Schrodinger Suite 2021-1.
 41 42  0  0  1  0            999 V2000
   72.9884   33.3668   -1.9175 C   0  0  0  0  0  0
   71.9136   34.2088   -2.1778 C   0  0  0  0  0  0
   70.6172   33.8197   -1.8456 C   0  0  0  0  0  0
   70.3702   32.5828   -1.2153 C   0  0  0  0  0  0
   69.0670   32.1755   -0.8165 C   0  0  0  0  0  0
   68.8083   30.8332   -0.5176 C   0  0  0  0  0  0
   69.8804   29.9600   -0.4158 C   0  0  0  0  0  0
   71.1960   30.4015   -0.5472 C   0  0  0  0  0  0
   71.4643   31.6967   -1.0177 C   0  0  0  0  0  0
   72.7783   32.1172   -1.3412 C   0  0  0  0  0  0
   67.3847   30.3336   -0.4857 C   0  0  0  0  0  0
   66.5544   30.8677   -1.2076 O   0  0  0  0  0  0
   67.0192   29.3152    0.3057 N   0  0  0  0  0  0
   65.7215   28.6353    0.2613 C   0  0  0  0  0  0
   64.8188   29.0470    1.4259 C   0  0  0  0  0  0
   65.4729   28.7848    2.7933 C   0  0  0  0  0  0
   64.4972   28.2046    3.8257 C   0  0  0  0  0  0
   65.1739   27.9152    5.1963 C   0  0  0  0  0  0
   64.4439   28.3763    6.4882 C   0  0  0  0  0  0
   62.6313   28.5172    6.3835 S   0  0  0  0  0  0
   73.9905   33.6815   -2.1715 H   0  0  0  0  0  0
   72.0863   35.1773   -2.6245 H   0  0  0  0  0  0
   69.7883   34.4878   -2.0263 H   0  0  0  0  0  0
   68.2517   32.8778   -0.9207 H   0  0  0  0  0  0
   69.6992   28.9156   -0.2261 H   0  0  0  0  0  0
   72.0199   29.7139   -0.4164 H   0  0  0  0  0  0
   73.6135   31.4538   -1.1627 H   0  0  0  0  0  0
   67.7063   28.9550    0.9636 H   0  0  0  0  0  0
   65.9181   27.5659    0.3473 H   0  0  0  0  0  0
   65.2027   28.7542   -0.6937 H   0  0  0  0  0  0
   63.8752   28.5086    1.3304 H   0  0  0  0  0  0
   64.5715   30.1063    1.3359 H   0  0  0  0  0  0
   65.9034   29.7133    3.1589 H   0  0  0  0  0  0
   66.3235   28.1153    2.6936 H   0  0  0  0  0  0
   64.0338   27.3146    3.4166 H   0  0  0  0  0  0
   63.6697   28.9080    3.9204 H   0  0  0  0  0  0
   66.1588   28.3844    5.2173 H   0  0  0  0  0  0
   65.4179   26.8579    5.2691 H   0  0  0  0  0  0
   64.8169   29.3543    6.7838 H   0  0  0  0  0  0
   64.6899   27.7100    7.3125 H   0  0  0  0  0  0
   62.4055   27.2149    6.1870 H   0  0  0  0  0  0
  1 10  1  0  0  0
  1  2  2  0  0  0
  1 21  1  0  0  0
  2  3  1  0  0  0
  2 22  1  0  0  0
  3  4  2  0  0  0
  3 23  1  0  0  0
  4  9  1  0  0  0
  4  5  1  0  0  0
  5  6  2  0  0  0
  5 24  1  0  0  0
  6  7  1  0  0  0
  6 11  1  0  0  0
  7  8  2  0  0  0
  7 25  1  0  0  0
  8  9  1  0  0  0
  8 26  1  0  0  0
  9 10  2  0  0  0
 10 27  1  0  0  0
 11 12  2  0  0  0
 11 13  1  0  0  0
 13 14  1  0  0  0
 13 28  1  0  0  0
 14 15  1  0  0  0
 14 29  1  0  0  0
 14 30  1  0  0  0
 15 16  1  0  0  0
 15 31  1  0  0  0
 15 32  1  0  0  0
 16 17  1  0  0  0
 16 33  1  0  0  0
 16 34  1  0  0  0
 17 18  1  0  0  0
 17 35  1  0  0  0
 17 36  1  0  0  0
 18 19  1  0  0  0
 18 37  1  0  0  0
 18 38  1  0  0  0
 19 20  1  0  0  0
 19 39  1  0  0  0
 19 40  1  0  0  0
 20 41  1  0  0  0
M  END
> <s_m_entry_id>
52629

> <s_m_entry_name>
ligand_docking-pose.54

> <s_m_Source_Path>
/home/csk/Desktop/cluster/DUD-E-result/hdac2

> <s_m_Source_File>
ligand_docking-pose.sdf

> <i_m_Source_File_Index>
54

> <i_lp_mmshare_version>
53161

> <r_lp_tautomer_probability>
1

> <s_lp_Force_Field>
OPLS_2005

> <r_lp_Energy>
12.054672

> <b_lp_Chiralities_Consistent>
1

> <s_lp_Variant>
184358-1

> <s_i_glide_gridfile>
glide-grid_3max

> <i_i_glide_lignum>
66

> <i_i_glide_rotatable_bonds>
9

> <r_i_docking_score>
-7.29790372616112

> <r_i_glide_ligand_efficiency>
-0.364895186308056

> <r_i_glide_ligand_efficiency_sa>
-0.990477920936199

> <r_i_glide_ligand_efficiency_ln>
-1.82642460168384

> <r_i_glide_gscore>
-7.29790372616112

> <r_i_glide_lipo>
-3.36714529858772

> <r_i_glide_hbond>
-0.32

> <r_i_glide_metal>
-2.3

> <r_i_glide_rewards>
-2.05901828698832

> <r_i_glide_evdw>
-19.2007579803467

> <r_i_glide_ecoul>
-8.0932035446167

> <r_i_glide_erotb>
3.08030095520088

> <r_i_glide_esite>
-0.158022665076125

> <r_i_glide_emodel>
-32.0436958160764

> <r_i_glide_energy>
-27.2939615249634

> <r_i_glide_einternal>
13.1179218292236

> <i_i_glide_confnum>
5

> <i_i_glide_posenum>
273

> <r_i_glide_eff_state_penalty>
0

> <i_f3d_flags>
0

> <s_user_duplicate_titles>
184358

> <s_m_subgroup_title>
dock_pv

> <s_m_subgroupid>
dock_pv1

> <b_m_subgroup_collapsed>
0

$$$$
318226
                    3D
 Schrodinger Suite 2021-1.
 31 32  0  0  1  0            999 V2000
   76.2122   35.1262   -0.3449 C   0  0  0  0  0  0
   75.6903   34.1006    0.4380 C   0  0  0  0  0  0
   74.4343   33.5777    0.1453 C   0  0  0  0  0  0
   73.6886   34.0778   -0.9380 C   0  0  0  0  0  0
   74.2344   35.1100   -1.7168 C   0  0  0  0  0  0
   75.4915   35.6315   -1.4224 C   0  0  0  0  0  0
   72.3021   33.5580   -1.2515 C   0  0  0  0  0  0
   71.5366   34.2078   -1.9684 O   0  0  0  0  0  0
   71.9881   32.3599   -0.7144 N   0  0  0  0  0  0
   70.7239   31.7597   -0.6355 C   0  0  0  0  0  0
   69.5300   32.4865   -0.5931 C   0  0  0  0  0  0
   68.3204   31.8236   -0.4304 C   0  0  0  0  0  0
   68.2759   30.4314   -0.3447 C   0  0  0  0  0  0
   69.4644   29.7150   -0.4182 C   0  0  0  0  0  0
   70.6853   30.3740   -0.5346 C   0  0  0  0  0  0
   66.9575   29.7161   -0.2441 C   0  0  0  0  0  0
   66.2180   29.7149   -1.2160 O   0  0  0  0  0  0
   66.6179   29.2267    0.9564 N   0  0  0  0  0  0
   65.3735   28.5912    1.1047 O   0  0  0  0  0  0
   77.1839   35.5354   -0.1132 H   0  0  0  0  0  0
   76.2529   33.7087    1.2749 H   0  0  0  0  0  0
   74.0608   32.7900    0.7854 H   0  0  0  0  0  0
   73.6850   35.5215   -2.5525 H   0  0  0  0  0  0
   75.9029   36.4288   -2.0246 H   0  0  0  0  0  0
   72.7480   31.8317   -0.3149 H   0  0  0  0  0  0
   69.5266   33.5613   -0.6688 H   0  0  0  0  0  0
   67.4180   32.4100   -0.4164 H   0  0  0  0  0  0
   69.4315   28.6377   -0.4157 H   0  0  0  0  0  0
   71.5966   29.7951   -0.5828 H   0  0  0  0  0  0
   67.2336   29.1340    1.7593 H   0  0  0  0  0  0
   65.5944   27.6555    1.1404 H   0  0  0  0  0  0
  1  6  1  0  0  0
  1  2  2  0  0  0
  1 20  1  0  0  0
  2  3  1  0  0  0
  2 21  1  0  0  0
  3  4  2  0  0  0
  3 22  1  0  0  0
  4  5  1  0  0  0
  4  7  1  0  0  0
  5  6  2  0  0  0
  5 23  1  0  0  0
  6 24  1  0  0  0
  7  8  2  0  0  0
  7  9  1  0  0  0
  9 10  1  0  0  0
  9 25  1  0  0  0
 10 15  1  0  0  0
 10 11  2  0  0  0
 11 12  1  0  0  0
 11 26  1  0  0  0
 12 13  2  0  0  0
 12 27  1  0  0  0
 13 14  1  0  0  0
 13 16  1  0  0  0
 14 15  2  0  0  0
 14 28  1  0  0  0
 15 29  1  0  0  0
 16 17  2  0  0  0
 16 18  1  0  0  0
 18 19  1  0  0  0
 18 30  1  0  0  0
 19 31  1  0  0  0
M  END
> <s_m_entry_id>
52630

> <s_m_entry_name>
ligand_docking-pose.55

> <s_m_Source_Path>
/home/csk/Desktop/cluster/DUD-E-result/hdac2

> <s_m_Source_File>
ligand_docking-pose.sdf

> <i_m_Source_File_Index>
55

> <i_lp_mmshare_version>
53161

> <r_lp_tautomer_probability>
1

> <s_lp_Force_Field>
OPLS_2005

> <r_lp_Energy>
30.041181

> <b_lp_Chiralities_Consistent>
1

> <s_lp_Variant>
318226-1

> <s_i_glide_gridfile>
glide-grid_3max

> <i_i_glide_lignum>
216

> <i_i_glide_rotatable_bonds>
6

> <r_i_docking_score>
-7.29250320095129

> <r_i_glide_ligand_efficiency>
-0.383815957944805

> <r_i_glide_ligand_efficiency_sa>
-1.0241751339805

> <r_i_glide_ligand_efficiency_ln>
-1.84880619004845

> <r_i_glide_gscore>
-7.29250320095129

> <r_i_glide_lipo>
-1.53350624801029

> <r_i_glide_hbond>
-0.240047423071709

> <r_i_glide_metal>
-2.3

> <r_i_glide_rewards>
-1.88319326370296

> <r_i_glide_evdw>
-17.1787261962891

> <r_i_glide_ecoul>
-10.9430980682373

> <r_i_glide_erotb>
1.34183117323479

> <r_i_glide_esite>
-0.177186419351078

> <r_i_glide_emodel>
-40.5193180712354

> <r_i_glide_energy>
-28.1218242645264

> <r_i_glide_einternal>
10.7982187271118

> <i_i_glide_confnum>
24

> <i_i_glide_posenum>
352

> <r_i_glide_eff_state_penalty>
0

> <i_f3d_flags>
0

> <s_user_duplicate_titles>
318226

> <s_m_subgroup_title>
dock_pv

> <s_m_subgroupid>
dock_pv1

> <b_m_subgroup_collapsed>
0

$$$$
235511
                    3D
 Schrodinger Suite 2021-1.
 49 51  0  0  1  0            999 V2000
   74.2531   32.1149   -0.1268 C   0  0  0  0  0  0
   73.3404   32.7199   -1.2172 C   0  0  1  0  0  0
   71.8761   32.2580   -1.0818 C   0  0  0  0  0  0
   71.5968   30.9150   -0.8160 C   0  0  0  0  0  0
   70.2901   30.4757   -0.6489 C   0  0  0  0  0  0
   69.2212   31.3681   -0.7484 C   0  0  0  0  0  0
   69.4919   32.7068   -1.0340 C   0  0  0  0  0  0
   70.8009   33.1438   -1.2160 C   0  0  0  0  0  0
   67.8180   30.9343   -0.5762 C   0  0  0  0  0  0
   67.4240   29.7150   -0.1531 C   0  0  0  0  0  0
   66.0468   29.3200   -0.0255 C   0  0  0  0  0  0
   65.1874   29.7150   -0.8160 O   0  0  0  0  0  0
   65.8139   28.5150    1.0213 N   0  0  0  0  0  0
   64.4951   28.0961    1.2582 O   0  0  0  0  0  0
   73.4768   34.1757   -1.1484 N   0  0  2  0  0  0
   74.7052   34.7001   -1.7388 C   0  0  0  0  0  0
   75.1079   35.9846   -0.9853 C   0  0  0  0  0  0
   75.2520   35.7857    0.5191 C   0  0  0  0  0  0
   75.9658   34.7998    1.1802 C   0  0  0  0  0  0
   75.8080   34.9150    2.5358 N   0  0  0  0  0  0
   75.0277   36.0136    2.8180 C   0  0  0  0  0  0
   74.6569   36.5856    1.5598 C   0  0  0  0  0  0
   73.8355   37.7263    1.5596 C   0  0  0  0  0  0
   73.4293   38.2717    2.7760 C   0  0  0  0  0  0
   73.8183   37.7009    3.9844 C   0  0  0  0  0  0
   74.6131   36.5556    4.0392 C   0  0  0  0  0  0
   76.2173   34.2510    3.1839 H   0  0  0  0  0  0
   74.2188   31.0279   -0.1268 H   0  0  0  0  0  0
   75.3029   32.3628   -0.2686 H   0  0  0  0  0  0
   73.9640   32.4449    0.8722 H   0  0  0  0  0  0
   73.6767   32.3834   -2.1998 H   0  0  0  0  0  0
   72.3855   30.1811   -0.7489 H   0  0  0  0  0  0
   70.1326   29.4260   -0.4563 H   0  0  0  0  0  0
   68.6839   33.4136   -1.1419 H   0  0  0  0  0  0
   70.9776   34.1799   -1.4592 H   0  0  0  0  0  0
   67.0682   31.6765   -0.8163 H   0  0  0  0  0  0
   68.1516   28.9751    0.1105 H   0  0  0  0  0  0
   66.4843   28.1491    1.6844 H   0  0  0  0  0  0
   64.4886   27.1801    0.9665 H   0  0  0  0  0  0
   73.5315   34.4318   -0.1707 H   0  0  0  0  0  0
   75.5208   33.9801   -1.6691 H   0  0  0  0  0  0
   74.5383   34.9040   -2.7973 H   0  0  0  0  0  0
   76.0450   36.3569   -1.4003 H   0  0  0  0  0  0
   74.3734   36.7602   -1.2063 H   0  0  0  0  0  0
   76.5623   33.9852    0.7932 H   0  0  0  0  0  0
   73.5296   38.1809    0.6293 H   0  0  0  0  0  0
   72.8070   39.1544    2.7823 H   0  0  0  0  0  0
   73.4918   38.1572    4.9085 H   0  0  0  0  0  0
   74.9033   36.1190    4.9840 H   0  0  0  0  0  0
  1  2  1  0  0  0
  1 28  1  0  0  0
  1 29  1  0  0  0
  1 30  1  0  0  0
  2  3  1  0  0  0
  2 15  1  0  0  0
  2 31  1  0  0  0
  3  8  1  0  0  0
  3  4  2  0  0  0
  4  5  1  0  0  0
  4 32  1  0  0  0
  5  6  2  0  0  0
  5 33  1  0  0  0
  6  7  1  0  0  0
  6  9  1  0  0  0
  7  8  2  0  0  0
  7 34  1  0  0  0
  8 35  1  0  0  0
  9 10  2  0  0  0
  9 36  1  0  0  0
 10 11  1  0  0  0
 10 37  1  0  0  0
 11 12  2  0  0  0
 11 13  1  0  0  0
 13 14  1  0  0  0
 13 38  1  0  0  0
 14 39  1  0  0  0
 15 16  1  0  0  0
 15 40  1  0  0  0
 16 17  1  0  0  0
 16 41  1  0  0  0
 16 42  1  0  0  0
 17 18  1  0  0  0
 17 43  1  0  0  0
 17 44  1  0  0  0
 18 22  1  0  0  0
 18 19  2  0  0  0
 19 20  1  0  0  0
 19 45  1  0  0  0
 20 27  1  0  0  0
 20 21  1  0  0  0
 21 26  1  0  0  0
 21 22  2  0  0  0
 22 23  1  0  0  0
 23 24  2  0  0  0
 23 46  1  0  0  0
 24 25  1  0  0  0
 24 47  1  0  0  0
 25 26  2  0  0  0
 25 48  1  0  0  0
 26 49  1  0  0  0
M  END
> <s_m_entry_id>
52631

> <s_m_entry_name>
ligand_docking-pose.56

> <s_m_Source_Path>
/home/csk/Desktop/cluster/DUD-E-result/hdac2

> <s_m_Source_File>
ligand_docking-pose.sdf

> <i_m_Source_File_Index>
56

> <i_lp_mmshare_version>
53161

> <r_lp_tautomer_probability>
1

> <s_lp_Force_Field>
OPLS_2005

> <r_lp_Energy>
18.70428

> <b_lp_Chiralities_Consistent>
1

> <s_lp_Variant>
235511-2

> <s_i_glide_gridfile>
glide-grid_3max

> <i_i_glide_lignum>
313

> <i_i_glide_rotatable_bonds>
9

> <r_i_docking_score>
-7.28929805406041

> <r_i_glide_ligand_efficiency>
-0.280357617463862

> <r_i_glide_ligand_efficiency_sa>
-0.830558338582736

> <r_i_glide_ligand_efficiency_ln>
-1.71186772985832

> <r_i_glide_gscore>
-7.28929805406041

> <r_i_glide_lipo>
-1.44368773482816

> <r_i_glide_hbond>
-0.0285141236265586

> <r_i_glide_metal>
-2.3

> <r_i_glide_rewards>
-1.41166684538878

> <r_i_glide_evdw>
-32.3320579528809

> <r_i_glide_ecoul>
-9.97405910491943

> <r_i_glide_erotb>
1.092069374716

> <r_i_glide_esite>
-0.0847869615509564

> <r_i_glide_emodel>
-61.1893844669003

> <r_i_glide_energy>
-42.3061170578003

> <r_i_glide_einternal>
10.5370779037476

> <i_i_glide_confnum>
2

> <i_i_glide_posenum>
106

> <r_i_glide_eff_state_penalty>
0

> <i_f3d_flags>
0

> <s_user_duplicate_titles>
235511

> <s_m_subgroup_title>
dock_pv

> <s_m_subgroupid>
dock_pv1

> <b_m_subgroup_collapsed>
0

$$$$
86889
                    3D
 Schrodinger Suite 2021-1.
 43 44  0  0  1  0            999 V2000
   72.3127   32.1053   -1.2056 C   0  0  0  0  0  0
   71.5656   33.2435   -1.4936 C   0  0  0  0  0  0
   70.1784   33.2611   -1.3458 C   0  0  0  0  0  0
   69.5653   32.1030   -0.8709 C   0  0  0  0  0  0
   70.2935   30.9094   -0.6680 C   0  0  0  0  0  0
   71.6895   30.9239   -0.8076 C   0  0  0  0  0  0
   69.3115   29.9079   -0.4289 C   0  0  0  0  0  0
   68.0687   30.4855   -0.3008 C   0  0  0  0  0  0
   68.2475   31.8219   -0.5670 N   0  0  0  0  0  0
   66.7720   29.8642   -0.1619 C   0  0  0  0  0  0
   65.8173   30.2622   -0.8160 O   0  0  0  0  0  0
   66.6180   28.9150    0.7642 N   0  0  0  0  0  0
   65.4178   28.0719    0.7973 C   0  0  0  0  0  0
   64.2285   28.6415    1.5836 C   0  0  0  0  0  0
   64.2254   28.3466    3.0960 C   0  0  0  0  0  0
   62.8412   28.6464    3.7090 C   0  0  0  0  0  0
   62.6028   28.2041    5.1740 C   0  0  0  0  0  0
   62.6446   29.3266    6.2229 C   0  0  0  0  0  0
   61.5018   29.3157    7.2313 C   0  0  0  0  0  0
   61.0178   28.2505    7.5922 O   0  0  0  0  0  0
   61.1853   30.4974    7.7881 N   0  0  0  0  0  0
   60.2191   30.5050    8.8011 O   0  0  0  0  0  0
   67.4693   32.4656   -0.5624 H   0  0  0  0  0  0
   73.3874   32.1264   -1.3228 H   0  0  0  0  0  0
   72.0739   34.1311   -1.8426 H   0  0  0  0  0  0
   69.5895   34.1142   -1.6159 H   0  0  0  0  0  0
   72.2780   30.0374   -0.6352 H   0  0  0  0  0  0
   69.4709   28.8607   -0.4160 H   0  0  0  0  0  0
   67.3976   28.6863    1.3761 H   0  0  0  0  0  0
   65.6788   27.0985    1.1821 H   0  0  0  0  0  0
   65.0917   27.8354   -0.2198 H   0  0  0  0  0  0
   63.3376   28.1917    1.1457 H   0  0  0  0  0  0
   64.1451   29.7151    1.4107 H   0  0  0  0  0  0
   65.0201   28.9135    3.5801 H   0  0  0  0  0  0
   64.4636   27.2981    3.2542 H   0  0  0  0  0  0
   62.0964   28.1266    3.1027 H   0  0  0  0  0  0
   62.6180   29.7095    3.5837 H   0  0  0  0  0  0
   63.3030   27.4543    5.5304 H   0  0  0  0  0  0
   61.6257   27.7155    5.1819 H   0  0  0  0  0  0
   62.6183   30.2797    5.7281 H   0  0  0  0  0  0
   63.5917   29.3036    6.7658 H   0  0  0  0  0  0
   61.6814   31.3718    7.6979 H   0  0  0  0  0  0
   60.7331   30.5373    9.6121 H   0  0  0  0  0  0
  1  6  1  0  0  0
  1  2  2  0  0  0
  1 24  1  0  0  0
  2  3  1  0  0  0
  2 25  1  0  0  0
  3  4  2  0  0  0
  3 26  1  0  0  0
  4  9  1  0  0  0
  4  5  1  0  0  0
  5  6  2  0  0  0
  5  7  1  0  0  0
  6 27  1  0  0  0
  7  8  2  0  0  0
  7 28  1  0  0  0
  8  9  1  0  0  0
  8 10  1  0  0  0
  9 23  1  0  0  0
 10 11  2  0  0  0
 10 12  1  0  0  0
 12 13  1  0  0  0
 12 29  1  0  0  0
 13 14  1  0  0  0
 13 30  1  0  0  0
 13 31  1  0  0  0
 14 15  1  0  0  0
 14 32  1  0  0  0
 14 33  1  0  0  0
 15 16  1  0  0  0
 15 34  1  0  0  0
 15 35  1  0  0  0
 16 17  1  0  0  0
 16 36  1  0  0  0
 16 37  1  0  0  0
 17 18  1  0  0  0
 17 38  1  0  0  0
 17 39  1  0  0  0
 18 19  1  0  0  0
 18 40  1  0  0  0
 18 41  1  0  0  0
 19 20  2  0  0  0
 19 21  1  0  0  0
 21 22  1  0  0  0
 21 42  1  0  0  0
 22 43  1  0  0  0
M  END
> <s_m_entry_id>
52632

> <s_m_entry_name>
ligand_docking-pose.57

> <s_m_Source_Path>
/home/csk/Desktop/cluster/DUD-E-result/hdac2

> <s_m_Source_File>
ligand_docking-pose.sdf

> <i_m_Source_File_Index>
57

> <i_lp_mmshare_version>
53161

> <r_lp_tautomer_probability>
1

> <s_lp_Force_Field>
OPLS_2005

> <r_lp_Energy>
16.332376

> <b_lp_Chiralities_Consistent>
1

> <s_lp_Variant>
86889-1

> <s_i_glide_gridfile>
glide-grid_3max

> <i_i_glide_lignum>
47

> <i_i_glide_rotatable_bonds>
11

> <r_i_docking_score>
-7.19576642035268

> <r_i_glide_ligand_efficiency>
-0.327080291834213

> <r_i_glide_ligand_efficiency_sa>
-0.916491841057402

> <r_i_glide_ligand_efficiency_ln>
-1.75890778509172

> <r_i_glide_gscore>
-7.19576642035268

> <r_i_glide_lipo>
-2.59724056926544

> <r_i_glide_hbond>
-0.352462627513497

> <r_i_glide_metal>
-2.3

> <r_i_glide_rewards>
-1.65148559551047

> <r_i_glide_evdw>
-17.7745933532715

> <r_i_glide_ecoul>
-6.18320560455322

> <r_i_glide_erotb>
1.80205018371269

> <r_i_glide_esite>
-0.28041730342941

> <r_i_glide_emodel>
-33.8827461431323

> <r_i_glide_energy>
-23.9577989578247

> <r_i_glide_einternal>
14.413857460022

> <i_i_glide_confnum>
1

> <i_i_glide_posenum>
224

> <r_i_glide_eff_state_penalty>
0

> <i_f3d_flags>
0

> <s_user_duplicate_titles>
86889

> <s_m_subgroup_title>
dock_pv

> <s_m_subgroupid>
dock_pv1

> <b_m_subgroup_collapsed>
0

$$$$
235959
                    3D
 Schrodinger Suite 2021-1.
 50 50  0  0  1  0            999 V2000
   72.0656   33.9015   -0.9183 C   0  0  0  0  0  0
   71.9912   32.4418   -0.8715 N   0  0  0  0  0  0
   73.2390   31.7290   -0.5810 C   0  0  0  0  0  0
   70.7434   31.7843   -0.6854 C   0  0  0  0  0  0
   69.5372   32.4963   -0.6251 C   0  0  0  0  0  0
   68.3233   31.8407   -0.4325 C   0  0  0  0  0  0
   68.2729   30.4506   -0.3374 C   0  0  0  0  0  0
   69.4576   29.7331   -0.4277 C   0  0  0  0  0  0
   70.6748   30.3905   -0.5790 C   0  0  0  0  0  0
   66.9585   29.7251   -0.2513 C   0  0  0  0  0  0
   66.2180   29.7150   -1.2160 O   0  0  0  0  0  0
   66.6180   29.1523    0.9055 N   0  0  0  0  0  0
   65.4050   28.3738    1.1278 C   0  0  0  0  0  0
   64.7214   28.7779    2.4318 C   0  0  0  0  0  0
   63.4809   27.9271    2.7413 C   0  0  0  0  0  0
   62.6180   28.5081    3.8682 C   0  0  0  0  0  0
   63.2054   28.3188    5.2767 C   0  0  0  0  0  0
   62.6158   29.2512    6.3300 C   0  0  0  0  0  0
   61.1851   28.8684    6.7209 C   0  0  0  0  0  0
   60.6070   29.8100    7.7872 C   0  0  0  0  0  0
   60.6180   31.0227    7.5840 O   0  0  0  0  0  0
   60.0620   29.3149    8.9047 N   0  0  0  0  0  0
   60.2180   27.9541    9.1840 O   0  0  0  0  0  0
   71.3512   34.3133   -1.6315 H   0  0  0  0  0  0
   71.8381   34.3213    0.0614 H   0  0  0  0  0  0
   73.0574   34.2482   -1.2113 H   0  0  0  0  0  0
   73.3511   30.8503   -1.2159 H   0  0  0  0  0  0
   74.1189   32.3571   -0.7255 H   0  0  0  0  0  0
   73.2500   31.3890    0.4560 H   0  0  0  0  0  0
   69.5168   33.5670   -0.7293 H   0  0  0  0  0  0
   67.4180   32.4258   -0.4160 H   0  0  0  0  0  0
   69.4279   28.6559   -0.4160 H   0  0  0  0  0  0
   71.5625   29.7821   -0.6510 H   0  0  0  0  0  0
   67.3644   29.0301    1.5840 H   0  0  0  0  0  0
   65.6579   27.3150    1.1411 H   0  0  0  0  0  0
   64.6857   28.4582    0.3092 H   0  0  0  0  0  0
   64.4348   29.8252    2.3518 H   0  0  0  0  0  0
   65.4330   28.7073    3.2554 H   0  0  0  0  0  0
   63.7837   26.9150    2.9870 H   0  0  0  0  0  0
   62.8763   27.8408    1.8419 H   0  0  0  0  0  0
   61.6196   28.0694    3.8278 H   0  0  0  0  0  0
   62.4923   29.5669    3.6676 H   0  0  0  0  0  0
   64.2895   28.4050    5.2767 H   0  0  0  0  0  0
   63.0180   27.3150    5.6174 H   0  0  0  0  0  0
   62.6180   30.2749    5.9839 H   0  0  0  0  0  0
   63.2789   29.2247    7.1892 H   0  0  0  0  0  0
   61.1775   27.8272    7.0364 H   0  0  0  0  0  0
   60.5224   28.9150    5.8562 H   0  0  0  0  0  0
   59.6847   29.8415    9.6795 H   0  0  0  0  0  0
   59.4799   27.5380    8.7250 H   0  0  0  0  0  0
  1  2  1  0  0  0
  1 24  1  0  0  0
  1 25  1  0  0  0
  1 26  1  0  0  0
  2  3  1  0  0  0
  2  4  1  0  0  0
  3 27  1  0  0  0
  3 28  1  0  0  0
  3 29  1  0  0  0
  4  9  1  0  0  0
  4  5  2  0  0  0
  5  6  1  0  0  0
  5 30  1  0  0  0
  6  7  2  0  0  0
  6 31  1  0  0  0
  7  8  1  0  0  0
  7 10  1  0  0  0
  8  9  2  0  0  0
  8 32  1  0  0  0
  9 33  1  0  0  0
 10 11  2  0  0  0
 10 12  1  0  0  0
 12 13  1  0  0  0
 12 34  1  0  0  0
 13 14  1  0  0  0
 13 35  1  0  0  0
 13 36  1  0  0  0
 14 15  1  0  0  0
 14 37  1  0  0  0
 14 38  1  0  0  0
 15 16  1  0  0  0
 15 39  1  0  0  0
 15 40  1  0  0  0
 16 17  1  0  0  0
 16 41  1  0  0  0
 16 42  1  0  0  0
 17 18  1  0  0  0
 17 43  1  0  0  0
 17 44  1  0  0  0
 18 19  1  0  0  0
 18 45  1  0  0  0
 18 46  1  0  0  0
 19 20  1  0  0  0
 19 47  1  0  0  0
 19 48  1  0  0  0
 20 21  2  0  0  0
 20 22  1  0  0  0
 22 23  1  0  0  0
 22 49  1  0  0  0
 23 50  1  0  0  0
M  END
> <s_m_entry_id>
52633

> <s_m_entry_name>
ligand_docking-pose.58

> <s_m_Source_Path>
/home/csk/Desktop/cluster/DUD-E-result/hdac2

> <s_m_Source_File>
ligand_docking-pose.sdf

> <i_m_Source_File_Index>
58

> <i_lp_mmshare_version>
53161

> <r_lp_tautomer_probability>
1

> <s_lp_Force_Field>
OPLS_2005

> <r_lp_Energy>
18.189504

> <b_lp_Chiralities_Consistent>
1

> <s_lp_Variant>
235959-1

> <s_i_glide_gridfile>
glide-grid_3max

> <i_i_glide_lignum>
413

> <i_i_glide_rotatable_bonds>
13

> <r_i_docking_score>
-7.18771207531908

> <r_i_glide_ligand_efficiency>
-0.312509220666047

> <r_i_glide_ligand_efficiency_sa>
-0.888734652622443

> <r_i_glide_ligand_efficiency_ln>
-1.73805395438189

> <r_i_glide_gscore>
-7.18771207531908

> <r_i_glide_lipo>
-2.77324733107579

> <r_i_glide_hbond>
-0.500849878765381

> <r_i_glide_metal>
-2.3

> <r_i_glide_rewards>
-0.0631953085837451

> <r_i_glide_evdw>
-26.8796463012695

> <r_i_glide_ecoul>
-13.4545116424561

> <r_i_glide_erotb>
1.9896818534096

> <r_i_glide_esite>
-0.177942348871877

> <r_i_glide_emodel>
-49.0194222130207

> <r_i_glide_energy>
-40.3341579437256

> <r_i_glide_einternal>
13.8518133163452

> <i_i_glide_confnum>
115

> <i_i_glide_posenum>
107

> <r_i_glide_eff_state_penalty>
0

> <i_f3d_flags>
0

> <s_user_duplicate_titles>
235959

> <s_m_subgroup_title>
dock_pv

> <s_m_subgroupid>
dock_pv1

> <b_m_subgroup_collapsed>
0

$$$$
131821
                    3D
 Schrodinger Suite 2021-1.
 25 25  0  0  1  0            999 V2000
   71.6744   33.5347   -1.3398 C   0  0  0  0  0  0
   72.9813   33.9999   -1.4572 C   0  0  0  0  0  0
   74.0448   33.1631   -1.1261 C   0  0  0  0  0  0
   73.8101   31.8648   -0.6801 C   0  0  0  0  0  0
   72.5033   31.3994   -0.5648 C   0  0  0  0  0  0
   71.4287   32.2356   -0.8892 C   0  0  0  0  0  0
   70.0394   31.7608   -0.7973 C   0  0  0  0  0  0
   69.6357   30.5407   -1.1939 C   0  0  0  0  0  0
   68.2801   30.0488   -1.0971 C   0  0  0  0  0  0
   67.5748   29.9798    0.0468 C   0  0  0  0  0  0
   66.2213   29.4873    0.0875 C   0  0  0  0  0  0
   65.4180   29.7150   -0.8160 O   0  0  0  0  0  0
   65.9191   28.8642    1.2376 N   0  0  0  0  0  0
   64.6180   28.3696    1.4138 O   0  0  0  0  0  0
   75.6644   33.7388   -1.2763 Cl  0  0  0  0  0  0
   70.8556   34.1831   -1.6160 H   0  0  0  0  0  0
   73.1698   35.0041   -1.8076 H   0  0  0  0  0  0
   74.6371   31.2201   -0.4160 H   0  0  0  0  0  0
   72.3353   30.3903   -0.2173 H   0  0  0  0  0  0
   69.3223   32.4473   -0.3683 H   0  0  0  0  0  0
   70.3663   29.8702   -1.6160 H   0  0  0  0  0  0
   67.8285   29.7150   -2.0160 H   0  0  0  0  0  0
   68.0098   30.2885    0.9866 H   0  0  0  0  0  0
   66.5552   28.6157    1.9840 H   0  0  0  0  0  0
   64.7170   27.4190    1.3051 H   0  0  0  0  0  0
  1  6  1  0  0  0
  1  2  2  0  0  0
  1 16  1  0  0  0
  2  3  1  0  0  0
  2 17  1  0  0  0
  3  4  2  0  0  0
  3 15  1  0  0  0
  4  5  1  0  0  0
  4 18  1  0  0  0
  5  6  2  0  0  0
  5 19  1  0  0  0
  6  7  1  0  0  0
  7  8  2  0  0  0
  7 20  1  0  0  0
  8  9  1  0  0  0
  8 21  1  0  0  0
  9 10  2  0  0  0
  9 22  1  0  0  0
 10 11  1  0  0  0
 10 23  1  0  0  0
 11 12  2  0  0  0
 11 13  1  0  0  0
 13 14  1  0  0  0
 13 24  1  0  0  0
 14 25  1  0  0  0
M  END
> <s_m_entry_id>
52634

> <s_m_entry_name>
ligand_docking-pose.59

> <s_m_Source_Path>
/home/csk/Desktop/cluster/DUD-E-result/hdac2

> <s_m_Source_File>
ligand_docking-pose.sdf

> <i_m_Source_File_Index>
59

> <i_lp_mmshare_version>
53161

> <r_lp_tautomer_probability>
1

> <s_lp_Force_Field>
OPLS_2005

> <r_lp_Energy>
13.401904

> <b_lp_Chiralities_Consistent>
1

> <s_lp_Variant>
131821-1

> <s_i_glide_gridfile>
glide-grid_3max

> <i_i_glide_lignum>
154

> <i_i_glide_rotatable_bonds>
5

> <r_i_docking_score>
-7.13876714534541

> <r_i_glide_ligand_efficiency>
-0.475917809689694

> <r_i_glide_ligand_efficiency_sa>
-1.17371424758614

> <r_i_glide_ligand_efficiency_ln>
-1.92520779336359

> <r_i_glide_gscore>
-7.13876714534541

> <r_i_glide_lipo>
-1.01467828140187

> <r_i_glide_hbond>
-0.0720450791072037

> <r_i_glide_metal>
-2.3

> <r_i_glide_rewards>
-2.15077297313145

> <r_i_glide_evdw>
-23.5567588806152

> <r_i_glide_ecoul>
-9.02821254730225

> <r_i_glide_erotb>
1.01537255792445

> <r_i_glide_esite>
-0.0845735435032405

> <r_i_glide_emodel>
-46.1454700376907

> <r_i_glide_energy>
-32.5849714279175

> <r_i_glide_einternal>
8.78250408172607

> <i_i_glide_confnum>
10

> <i_i_glide_posenum>
360

> <r_i_glide_eff_state_penalty>
0

> <i_f3d_flags>
0

> <s_user_duplicate_titles>
131821

> <s_m_subgroup_title>
dock_pv

> <s_m_subgroupid>
dock_pv1

> <b_m_subgroup_collapsed>
0

$$$$
273243
                    3D
 Schrodinger Suite 2021-1.
 50 51  0  0  1  0            999 V2000
   60.5327   30.2692    7.5850 C   0  0  0  0  0  0
   60.1531   29.3150    6.6437 C   0  0  0  0  0  0
   61.1186   28.5905    5.9504 C   0  0  0  0  0  0
   62.4662   28.8511    6.1908 C   0  0  0  0  0  0
   62.8268   29.7584    7.1839 C   0  0  0  0  0  0
   61.8641   30.5150    7.8462 C   0  0  0  0  0  0
   63.5470   28.1150    5.4219 C   0  0  0  0  0  0
   63.2163   27.9858    4.0081 O   0  0  0  0  0  0
   64.1633   28.1441    2.9968 C   0  0  0  0  0  0
   65.4267   28.6989    3.1840 C   0  0  0  0  0  0
   66.1875   29.1519    2.1273 C   0  0  0  0  0  0
   65.7938   28.9147    0.8159 C   0  0  0  0  0  0
   64.6149   28.1852    0.6018 C   0  0  0  0  0  0
   63.8108   27.8184    1.6868 C   0  0  0  0  0  0
   66.6180   29.4373   -0.3362 C   0  0  0  0  0  0
   66.2180   29.3149   -1.4890 O   0  0  0  0  0  0
   67.8020   30.0206   -0.0594 N   0  0  0  0  0  0
   68.7281   30.5126   -1.0747 C   0  0  0  0  0  0
   70.2103   30.3267   -0.7284 C   0  0  0  0  0  0
   70.7480   31.3164    0.3230 C   0  0  0  0  0  0
   72.2100   31.7850    0.1008 C   0  0  0  0  0  0
   72.6596   32.2199   -1.3280 C   0  0  0  0  0  0
   71.7066   33.0809   -2.1832 C   0  0  0  0  0  0
   70.5798   33.3824   -1.7880 O   0  0  0  0  0  0
   72.1863   33.4471   -3.3854 N   0  0  0  0  0  0
   71.3571   34.1872   -4.2454 O   0  0  0  0  0  0
   59.8149   30.8556    8.1233 H   0  0  0  0  0  0
   59.1162   29.1700    6.3841 H   0  0  0  0  0  0
   60.8156   27.8695    5.2026 H   0  0  0  0  0  0
   63.8707   29.9342    7.4051 H   0  0  0  0  0  0
   62.1590   31.2513    8.5792 H   0  0  0  0  0  0
   63.5616   27.1980    5.9840 H   0  0  0  0  0  0
   64.5261   28.5150    5.6498 H   0  0  0  0  0  0
   65.8180   28.9124    4.1594 H   0  0  0  0  0  0
   67.0733   29.7150    2.3621 H   0  0  0  0  0  0
   64.2853   27.9411   -0.3996 H   0  0  0  0  0  0
   62.8769   27.3141    1.5127 H   0  0  0  0  0  0
   68.1665   29.9459    0.8813 H   0  0  0  0  0  0
   68.5155   31.5731   -1.2159 H   0  0  0  0  0  0
   68.5645   30.0335   -2.0382 H   0  0  0  0  0  0
   70.7545   30.4462   -1.6620 H   0  0  0  0  0  0
   70.4059   29.3031   -0.4217 H   0  0  0  0  0  0
   70.6583   30.8572    1.3068 H   0  0  0  0  0  0
   70.1060   32.1953    0.3803 H   0  0  0  0  0  0
   72.8799   30.9895    0.4334 H   0  0  0  0  0  0
   72.4101   32.6109    0.7833 H   0  0  0  0  0  0
   72.8613   31.3163   -1.9044 H   0  0  0  0  0  0
   73.6231   32.7259   -1.2528 H   0  0  0  0  0  0
   73.1071   33.2751   -3.7636 H   0  0  0  0  0  0
   71.7009   35.0836   -4.1835 H   0  0  0  0  0  0
  1  6  1  0  0  0
  1  2  2  0  0  0
  1 27  1  0  0  0
  2  3  1  0  0  0
  2 28  1  0  0  0
  3  4  2  0  0  0
  3 29  1  0  0  0
  4  5  1  0  0  0
  4  7  1  0  0  0
  5  6  2  0  0  0
  5 30  1  0  0  0
  6 31  1  0  0  0
  7  8  1  0  0  0
  7 32  1  0  0  0
  7 33  1  0  0  0
  8  9  1  0  0  0
  9 14  1  0  0  0
  9 10  2  0  0  0
 10 11  1  0  0  0
 10 34  1  0  0  0
 11 12  2  0  0  0
 11 35  1  0  0  0
 12 13  1  0  0  0
 12 15  1  0  0  0
 13 14  2  0  0  0
 13 36  1  0  0  0
 14 37  1  0  0  0
 15 16  2  0  0  0
 15 17  1  0  0  0
 17 18  1  0  0  0
 17 38  1  0  0  0
 18 19  1  0  0  0
 18 39  1  0  0  0
 18 40  1  0  0  0
 19 20  1  0  0  0
 19 41  1  0  0  0
 19 42  1  0  0  0
 20 21  1  0  0  0
 20 43  1  0  0  0
 20 44  1  0  0  0
 21 22  1  0  0  0
 21 45  1  0  0  0
 21 46  1  0  0  0
 22 23  1  0  0  0
 22 47  1  0  0  0
 22 48  1  0  0  0
 23 24  2  0  0  0
 23 25  1  0  0  0
 25 26  1  0  0  0
 25 49  1  0  0  0
 26 50  1  0  0  0
M  END
> <s_m_entry_id>
52635

> <s_m_entry_name>
ligand_docking-pose.60

> <s_m_Source_Path>
/home/csk/Desktop/cluster/DUD-E-result/hdac2

> <s_m_Source_File>
ligand_docking-pose.sdf

> <i_m_Source_File_Index>
60

> <i_lp_mmshare_version>
53161

> <r_lp_tautomer_probability>
1

> <s_lp_Force_Field>
OPLS_2005

> <r_lp_Energy>
24.404412

> <b_lp_Chiralities_Consistent>
1

> <s_lp_Variant>
273243-1

> <s_i_glide_gridfile>
glide-grid_3max

> <i_i_glide_lignum>
212

> <i_i_glide_rotatable_bonds>
13

> <r_i_docking_score>
-7.10926783561177

> <r_i_glide_ligand_efficiency>
-0.27343337829276

> <r_i_glide_ligand_efficiency_sa>
-0.810045307283912

> <r_i_glide_ligand_efficiency_ln>
-1.66958822378299

> <r_i_glide_gscore>
-7.10926783561177

> <r_i_glide_lipo>
-2.2453720325998

> <r_i_glide_hbond>
-0.241305927043732

> <r_i_glide_metal>
-2.3

> <r_i_glide_rewards>
-1.55441224515195

> <r_i_glide_evdw>
-15.4178104400635

> <r_i_glide_ecoul>
-10.9181184768677

> <r_i_glide_erotb>
1.80729993439441

> <r_i_glide_esite>
-0.16686927167736

> <r_i_glide_emodel>
-35.444691793939

> <r_i_glide_energy>
-26.3359289169312

> <r_i_glide_einternal>
8.23758602142334

> <i_i_glide_confnum>
213

> <i_i_glide_posenum>
33

> <r_i_glide_eff_state_penalty>
0

> <i_f3d_flags>
0

> <s_user_duplicate_titles>
273243

> <s_m_subgroup_title>
dock_pv

> <s_m_subgroupid>
dock_pv1

> <b_m_subgroup_collapsed>
0

$$$$
131479
                    3D
 Schrodinger Suite 2021-1.
 25 25  0  0  1  0            999 V2000
   74.0584   32.9754   -1.6833 C   0  0  0  0  0  0
   73.8480   32.0629   -0.6532 C   0  0  0  0  0  0
   72.5677   31.5722   -0.4160 C   0  0  0  0  0  0
   71.4923   31.9925   -1.2102 C   0  0  0  0  0  0
   71.7159   32.9147   -2.2372 C   0  0  0  0  0  0
   72.9971   33.4049   -2.4764 C   0  0  0  0  0  0
   70.1190   31.5052   -0.9816 C   0  0  0  0  0  0
   69.6415   31.0153    0.1787 C   0  0  0  0  0  0
   68.2961   30.5150    0.3840 C   0  0  0  0  0  0
   67.5644   29.8504   -0.5358 C   0  0  0  0  0  0
   66.2348   29.3354   -0.2977 C   0  0  0  0  0  0
   65.4180   29.3150   -1.2160 O   0  0  0  0  0  0
   65.9835   28.9150    0.9562 N   0  0  0  0  0  0
   64.7088   28.4101    1.2572 O   0  0  0  0  0  0
   75.0534   33.3550   -1.8640 H   0  0  0  0  0  0
   74.6731   31.7317   -0.0366 H   0  0  0  0  0  0
   72.4308   30.8589    0.3831 H   0  0  0  0  0  0
   70.8973   33.2612   -2.8495 H   0  0  0  0  0  0
   73.1676   34.1184   -3.2692 H   0  0  0  0  0  0
   69.4617   31.5370   -1.8373 H   0  0  0  0  0  0
   70.2990   30.9734    1.0351 H   0  0  0  0  0  0
   67.8719   30.6940    1.3604 H   0  0  0  0  0  0
   67.9546   29.6831   -1.5291 H   0  0  0  0  0  0
   66.6484   28.8366    1.7162 H   0  0  0  0  0  0
   64.8448   27.4592    1.3093 H   0  0  0  0  0  0
  1  6  1  0  0  0
  1  2  2  0  0  0
  1 15  1  0  0  0
  2  3  1  0  0  0
  2 16  1  0  0  0
  3  4  2  0  0  0
  3 17  1  0  0  0
  4  5  1  0  0  0
  4  7  1  0  0  0
  5  6  2  0  0  0
  5 18  1  0  0  0
  6 19  1  0  0  0
  7  8  2  0  0  0
  7 20  1  0  0  0
  8  9  1  0  0  0
  8 21  1  0  0  0
  9 10  2  0  0  0
  9 22  1  0  0  0
 10 11  1  0  0  0
 10 23  1  0  0  0
 11 12  2  0  0  0
 11 13  1  0  0  0
 13 14  1  0  0  0
 13 24  1  0  0  0
 14 25  1  0  0  0
M  END
> <s_m_entry_id>
52636

> <s_m_entry_name>
ligand_docking-pose.61

> <s_m_Source_Path>
/home/csk/Desktop/cluster/DUD-E-result/hdac2

> <s_m_Source_File>
ligand_docking-pose.sdf

> <i_m_Source_File_Index>
61

> <i_lp_mmshare_version>
53161

> <r_lp_tautomer_probability>
1

> <s_lp_Force_Field>
OPLS_2005

> <r_lp_Energy>
13.935717

> <b_lp_Chiralities_Consistent>
1

> <s_lp_Variant>
131479-1

> <s_i_glide_gridfile>
glide-grid_3max

> <i_i_glide_lignum>
153

> <i_i_glide_rotatable_bonds>
5

> <r_i_docking_score>
-7.09063956942448

> <r_i_glide_ligand_efficiency>
-0.506474254958892

> <r_i_glide_ligand_efficiency_sa>
-1.22067500651928

> <r_i_glide_ligand_efficiency_ln>
-1.94848251268802

> <r_i_glide_gscore>
-7.09063956942448

> <r_i_glide_lipo>
-1.05541267543035

> <r_i_glide_hbond>
-0.115685102754799

> <r_i_glide_metal>
-2.3

> <r_i_glide_rewards>
-2.35839068659192

> <r_i_glide_evdw>
-21.9542446136475

> <r_i_glide_ecoul>
-9.37732887268066

> <r_i_glide_erotb>
1.34316045693706

> <r_i_glide_esite>
-0.1

> <r_i_glide_emodel>
-47.293141390054

> <r_i_glide_energy>
-31.3315734863281

> <r_i_glide_einternal>
5.4078221321106

> <i_i_glide_confnum>
12

> <i_i_glide_posenum>
366

> <r_i_glide_eff_state_penalty>
0

> <i_f3d_flags>
0

> <s_user_duplicate_titles>
131479

> <s_m_subgroup_title>
dock_pv

> <s_m_subgroupid>
dock_pv1

> <b_m_subgroup_collapsed>
0

$$$$
246367
                    3D
 Schrodinger Suite 2021-1.
 44 46  0  0  1  0            999 V2000
   71.4278   35.0229   -4.3509 C   0  0  0  0  0  0
   71.8180   36.3383   -4.0813 C   0  0  0  0  0  0
   72.6020   36.6227   -2.9388 C   0  0  0  0  0  0
   73.0431   37.9180   -2.5608 C   0  0  0  0  0  0
   73.8180   38.0783   -1.4037 C   0  0  0  0  0  0
   74.1737   36.9824   -0.6080 C   0  0  0  0  0  0
   73.7313   35.7204   -0.9973 C   0  0  0  0  0  0
   72.9695   35.5315   -2.1163 C   0  0  0  0  0  0
   72.5941   34.2020   -2.3853 C   0  0  0  0  0  0
   71.8106   33.9675   -3.5186 C   0  0  0  0  0  0
   73.0726   33.2955   -1.4308 N   0  0  0  0  0  0
   74.0545   34.1414   -0.2165 S   0  0  0  0  0  0
   73.4180   34.0711    1.1026 O   0  0  0  0  0  0
   75.4664   33.7727   -0.3613 O   0  0  0  0  0  0
   73.2403   31.8594   -1.6307 C   0  0  0  0  0  0
   72.9290   31.0002   -0.3922 C   0  0  0  0  0  0
   71.5169   31.1720    0.1986 C   0  0  0  0  0  0
   70.3609   30.9092   -0.7916 C   0  0  0  0  0  0
   69.1523   30.2138   -0.1414 C   0  0  0  0  0  0
   67.8794   30.2601   -1.0028 C   0  0  0  0  0  0
   66.6180   29.5932   -0.4246 C   0  0  0  0  0  0
   65.7135   29.3150   -1.2160 O   0  0  0  0  0  0
   66.5712   29.3150    0.8877 N   0  0  0  0  0  0
   65.4180   28.7041    1.4055 O   0  0  0  0  0  0
   70.8160   34.8207   -5.2160 H   0  0  0  0  0  0
   71.5087   37.1442   -4.7322 H   0  0  0  0  0  0
   72.7772   38.7709   -3.1688 H   0  0  0  0  0  0
   74.1525   39.0666   -1.1235 H   0  0  0  0  0  0
   74.7812   37.1281    0.2737 H   0  0  0  0  0  0
   71.4866   32.9687   -3.7666 H   0  0  0  0  0  0
   74.2412   31.6522   -2.0117 H   0  0  0  0  0  0
   72.5402   31.5815   -2.4160 H   0  0  0  0  0  0
   73.6612   31.2283    0.3840 H   0  0  0  0  0  0
   73.0891   29.9507   -0.6354 H   0  0  0  0  0  0
   71.4180   32.1798    0.5964 H   0  0  0  0  0  0
   71.4337   30.5150    1.0647 H   0  0  0  0  0  0
   70.7030   30.2853   -1.6160 H   0  0  0  0  0  0
   70.0613   31.8575   -1.2408 H   0  0  0  0  0  0
   68.9646   30.6481    0.8420 H   0  0  0  0  0  0
   69.4180   29.1657   -0.0160 H   0  0  0  0  0  0
   68.1079   29.7659   -1.9496 H   0  0  0  0  0  0
   67.6270   31.2986   -1.2160 H   0  0  0  0  0  0
   67.3336   29.3731    1.5562 H   0  0  0  0  0  0
   65.6818   27.7882    1.5384 H   0  0  0  0  0  0
  1 10  1  0  0  0
  1  2  2  0  0  0
  1 25  1  0  0  0
  2  3  1  0  0  0
  2 26  1  0  0  0
  3  8  2  0  0  0
  3  4  1  0  0  0
  4  5  2  0  0  0
  4 27  1  0  0  0
  5  6  1  0  0  0
  5 28  1  0  0  0
  6  7  2  0  0  0
  6 29  1  0  0  0
  7 12  1  0  0  0
  7  8  1  0  0  0
  8  9  1  0  0  0
  9 10  2  0  0  0
  9 11  1  0  0  0
 10 30  1  0  0  0
 11 12  1  0  0  0
 11 15  1  0  0  0
 12 13  2  0  0  0
 12 14  2  0  0  0
 15 16  1  0  0  0
 15 31  1  0  0  0
 15 32  1  0  0  0
 16 17  1  0  0  0
 16 33  1  0  0  0
 16 34  1  0  0  0
 17 18  1  0  0  0
 17 35  1  0  0  0
 17 36  1  0  0  0
 18 19  1  0  0  0
 18 37  1  0  0  0
 18 38  1  0  0  0
 19 20  1  0  0  0
 19 39  1  0  0  0
 19 40  1  0  0  0
 20 21  1  0  0  0
 20 41  1  0  0  0
 20 42  1  0  0  0
 21 22  2  0  0  0
 21 23  1  0  0  0
 23 24  1  0  0  0
 23 43  1  0  0  0
 24 44  1  0  0  0
M  END
> <s_m_entry_id>
52637

> <s_m_entry_name>
ligand_docking-pose.62

> <s_m_Source_Path>
/home/csk/Desktop/cluster/DUD-E-result/hdac2

> <s_m_Source_File>
ligand_docking-pose.sdf

> <i_m_Source_File_Index>
62

> <i_lp_mmshare_version>
53161

> <r_lp_tautomer_probability>
1

> <s_lp_Force_Field>
OPLS_2005

> <r_lp_Energy>
49.34724

> <b_lp_Chiralities_Consistent>
1

> <s_lp_Variant>
246367-1

> <s_i_glide_gridfile>
glide-grid_3max

> <i_i_glide_lignum>
8

> <i_i_glide_rotatable_bonds>
9

> <r_i_docking_score>
-7.07301598298691

> <r_i_glide_ligand_efficiency>
-0.294708999291121

> <r_i_glide_ligand_efficiency_sa>
-0.85008785428615

> <r_i_glide_ligand_efficiency_ln>
-1.69289728428364

> <r_i_glide_gscore>
-7.07301598298691

> <r_i_glide_lipo>
-1.44737635472132

> <r_i_glide_hbond>
-0.269797270005399

> <r_i_glide_metal>
-2.3

> <r_i_glide_rewards>
-1.09184506959691

> <r_i_glide_evdw>
-28.6550045013428

> <r_i_glide_ecoul>
-9.56711959838867

> <r_i_glide_erotb>
1.09769369089081

> <r_i_glide_esite>
-0.193872814728657

> <r_i_glide_emodel>
-54.3943182675138

> <r_i_glide_energy>
-38.2221240997314

> <r_i_glide_einternal>
6.70154809951782

> <i_i_glide_confnum>
26

> <i_i_glide_posenum>
69

> <r_i_glide_eff_state_penalty>
0

> <i_f3d_flags>
0

> <s_user_duplicate_titles>
246367

> <s_m_subgroup_title>
dock_pv

> <s_m_subgroupid>
dock_pv1

> <b_m_subgroup_collapsed>
0

$$$$
185099
                    3D
 Schrodinger Suite 2021-1.
 43 43  0  0  1  0            999 V2000
   59.8449   28.9650    8.9643 C   0  0  0  0  0  0
   60.7986   28.5149    7.9835 N   0  0  0  0  0  0
   61.4701   29.3403    7.1840 C   0  0  0  0  0  0
   61.4180   30.5677    7.1841 O   0  0  0  0  0  0
   62.3886   28.5472    6.2222 C   0  0  0  0  0  0
   63.4795   28.1150    6.5918 O   0  0  0  0  0  0
   61.7551   28.3361    4.8406 C   0  0  0  0  0  0
   62.6180   28.6387    3.6137 C   0  0  0  0  0  0
   64.0334   28.0363    3.5255 C   0  0  0  0  0  0
   64.9612   28.7553    2.5536 C   0  0  0  0  0  0
   64.5762   28.5254    1.0825 C   0  0  0  0  0  0
   65.8180   28.3619    0.2094 C   0  0  0  0  0  0
   66.5037   29.6584   -0.2385 C   0  0  0  0  0  0
   65.8385   30.5122   -0.8160 O   0  0  0  0  0  0
   67.8277   29.7150   -0.0160 N   0  0  0  0  0  0
   68.7995   30.6436   -0.4111 C   0  0  0  0  0  0
   70.0927   30.1430   -0.5562 C   0  0  0  0  0  0
   71.1440   30.9835   -0.9061 C   0  0  0  0  0  0
   70.8937   32.3311   -1.1395 C   0  0  0  0  0  0
   69.6065   32.8408   -0.9992 C   0  0  0  0  0  0
   68.5624   32.0051   -0.6053 C   0  0  0  0  0  0
   59.5460   28.1279    9.5840 H   0  0  0  0  0  0
   58.9890   29.3149    8.4157 H   0  0  0  0  0  0
   60.2188   29.7795    9.5840 H   0  0  0  0  0  0
   60.9006   27.5147    7.8675 H   0  0  0  0  0  0
   61.4271   27.3151    4.7831 H   0  0  0  0  0  0
   60.8331   28.9138    4.7632 H   0  0  0  0  0  0
   62.0633   28.2346    2.7748 H   0  0  0  0  0  0
   62.6187   29.7150    3.4886 H   0  0  0  0  0  0
   64.5435   28.0201    4.4834 H   0  0  0  0  0  0
   63.9602   27.0016    3.1840 H   0  0  0  0  0  0
   65.0182   29.8157    2.7689 H   0  0  0  0  0  0
   65.9689   28.3897    2.7582 H   0  0  0  0  0  0
   63.9939   27.6065    0.9879 H   0  0  0  0  0  0
   63.9224   29.3150    0.7267 H   0  0  0  0  0  0
   66.4881   27.7257    0.7840 H   0  0  0  0  0  0
   65.5626   27.8210   -0.6999 H   0  0  0  0  0  0
   68.2153   28.9550    0.5335 H   0  0  0  0  0  0
   70.2885   29.0929   -0.4160 H   0  0  0  0  0  0
   72.1425   30.5851   -1.0195 H   0  0  0  0  0  0
   71.7026   32.9833   -1.4352 H   0  0  0  0  0  0
   69.4180   33.8790   -1.2159 H   0  0  0  0  0  0
   67.5733   32.4151   -0.4769 H   0  0  0  0  0  0
  1  2  1  0  0  0
  1 22  1  0  0  0
  1 23  1  0  0  0
  1 24  1  0  0  0
  2  3  1  0  0  0
  2 25  1  0  0  0
  3  4  2  0  0  0
  3  5  1  0  0  0
  5  6  2  0  0  0
  5  7  1  0  0  0
  7  8  1  0  0  0
  7 26  1  0  0  0
  7 27  1  0  0  0
  8  9  1  0  0  0
  8 28  1  0  0  0
  8 29  1  0  0  0
  9 10  1  0  0  0
  9 30  1  0  0  0
  9 31  1  0  0  0
 10 11  1  0  0  0
 10 32  1  0  0  0
 10 33  1  0  0  0
 11 12  1  0  0  0
 11 34  1  0  0  0
 11 35  1  0  0  0
 12 13  1  0  0  0
 12 36  1  0  0  0
 12 37  1  0  0  0
 13 14  2  0  0  0
 13 15  1  0  0  0
 15 16  1  0  0  0
 15 38  1  0  0  0
 16 21  1  0  0  0
 16 17  2  0  0  0
 17 18  1  0  0  0
 17 39  1  0  0  0
 18 19  2  0  0  0
 18 40  1  0  0  0
 19 20  1  0  0  0
 19 41  1  0  0  0
 20 21  2  0  0  0
 20 42  1  0  0  0
 21 43  1  0  0  0
M  END
> <s_m_entry_id>
52638

> <s_m_entry_name>
ligand_docking-pose.63

> <s_m_Source_Path>
/home/csk/Desktop/cluster/DUD-E-result/hdac2

> <s_m_Source_File>
ligand_docking-pose.sdf

> <i_m_Source_File_Index>
63

> <i_lp_mmshare_version>
53161

> <r_lp_tautomer_probability>
0.99990000499975

> <s_lp_Force_Field>
OPLS_2005

> <r_lp_Energy>
14.596525

> <b_lp_Chiralities_Consistent>
1

> <s_lp_Variant>
185099-1

> <s_i_glide_gridfile>
glide-grid_3max

> <i_i_glide_lignum>
427

> <i_i_glide_rotatable_bonds>
11

> <r_i_docking_score>
-7.0012669675252

> <r_i_glide_ligand_efficiency>
-0.333393665120248

> <r_i_glide_ligand_efficiency_sa>
-0.919807842019104

> <r_i_glide_ligand_efficiency_ln>
-1.7310491103286

> <r_i_glide_gscore>
-7.0012669675252

> <r_i_glide_lipo>
-3.33010680465653

> <r_i_glide_hbond>
-0.499665334397386

> <r_i_glide_metal>
-2.3

> <r_i_glide_rewards>
-1.68099206994692

> <r_i_glide_evdw>
-18.9766826629639

> <r_i_glide_ecoul>
-12.6017446517944

> <r_i_glide_erotb>
3.89083725165189

> <r_i_glide_esite>
-0.242244179258891

> <r_i_glide_emodel>
-40.2252874701905

> <r_i_glide_energy>
-31.5784273147583

> <r_i_glide_einternal>
13.2117958068848

> <i_i_glide_confnum>
97

> <i_i_glide_posenum>
224

> <r_i_glide_eff_state_penalty>
0

> <i_f3d_flags>
0

> <s_user_duplicate_titles>
185099

> <s_m_subgroup_title>
dock_pv

> <s_m_subgroupid>
dock_pv1

> <b_m_subgroup_collapsed>
0

$$$$
184359
                    3D
 Schrodinger Suite 2021-1.
 38 39  0  0  1  0            999 V2000
   72.6895   32.1829   -1.1603 C   0  0  0  0  0  0
   71.9521   33.3139   -1.5195 C   0  0  0  0  0  0
   70.5570   33.3087   -1.4646 C   0  0  0  0  0  0
   69.9394   32.1428   -1.0090 C   0  0  0  0  0  0
   70.6592   30.9658   -0.7294 C   0  0  0  0  0  0
   72.0608   30.9952   -0.7786 C   0  0  0  0  0  0
   69.6543   29.9834   -0.5185 C   0  0  0  0  0  0
   68.4321   30.6413   -0.5241 C   0  0  0  0  0  0
   68.5953   31.9615   -0.8162 O   0  0  0  0  0  0
   67.1035   30.1119   -0.3966 C   0  0  0  0  0  0
   66.2183   30.2984   -1.2121 O   0  0  0  0  0  0
   66.9089   29.3516    0.6833 N   0  0  0  0  0  0
   65.7612   28.4937    0.9581 C   0  0  0  0  0  0
   64.8845   28.9215    2.1552 C   0  0  0  0  0  0
   64.1858   27.6990    2.7906 C   0  0  0  0  0  0
   62.7445   27.8570    3.3073 C   0  0  0  0  0  0
   62.5756   28.3269    4.7611 C   0  0  0  0  0  0
   61.0972   28.3168    5.2224 C   0  0  0  0  0  0
   61.0198   28.9150    6.9335 S   0  0  0  0  0  0
   73.7686   32.2067   -1.2006 H   0  0  0  0  0  0
   72.4689   34.2032   -1.8564 H   0  0  0  0  0  0
   69.9649   34.1464   -1.7788 H   0  0  0  0  0  0
   72.6401   30.1168   -0.5389 H   0  0  0  0  0  0
   69.7783   28.9197   -0.4160 H   0  0  0  0  0  0
   67.6790   29.3150    1.3487 H   0  0  0  0  0  0
   66.2167   27.5328    1.1801 H   0  0  0  0  0  0
   65.1463   28.2938    0.0792 H   0  0  0  0  0  0
   64.1617   29.6673    1.8231 H   0  0  0  0  0  0
   65.5133   29.3995    2.9068 H   0  0  0  0  0  0
   64.8224   27.3150    3.5850 H   0  0  0  0  0  0
   64.1449   26.9151    2.0368 H   0  0  0  0  0  0
   62.2275   26.9105    3.1818 H   0  0  0  0  0  0
   62.2183   28.5151    2.6469 H   0  0  0  0  0  0
   63.0104   29.3157    4.8686 H   0  0  0  0  0  0
   63.1715   27.7163    5.4345 H   0  0  0  0  0  0
   60.6192   27.3357    5.1807 H   0  0  0  0  0  0
   60.4714   28.9276    4.5795 H   0  0  0  0  0  0
   61.4295   27.7781    7.5007 H   0  0  0  0  0  0
  1  6  1  0  0  0
  1  2  2  0  0  0
  1 20  1  0  0  0
  2  3  1  0  0  0
  2 21  1  0  0  0
  3  4  2  0  0  0
  3 22  1  0  0  0
  4  9  1  0  0  0
  4  5  1  0  0  0
  5  6  2  0  0  0
  5  7  1  0  0  0
  6 23  1  0  0  0
  7  8  2  0  0  0
  7 24  1  0  0  0
  8  9  1  0  0  0
  8 10  1  0  0  0
 10 11  2  0  0  0
 10 12  1  0  0  0
 12 13  1  0  0  0
 12 25  1  0  0  0
 13 14  1  0  0  0
 13 26  1  0  0  0
 13 27  1  0  0  0
 14 15  1  0  0  0
 14 28  1  0  0  0
 14 29  1  0  0  0
 15 16  1  0  0  0
 15 30  1  0  0  0
 15 31  1  0  0  0
 16 17  1  0  0  0
 16 32  1  0  0  0
 16 33  1  0  0  0
 17 18  1  0  0  0
 17 34  1  0  0  0
 17 35  1  0  0  0
 18 19  1  0  0  0
 18 36  1  0  0  0
 18 37  1  0  0  0
 19 38  1  0  0  0
M  END
> <s_m_entry_id>
52639

> <s_m_entry_name>
ligand_docking-pose.64

> <s_m_Source_Path>
/home/csk/Desktop/cluster/DUD-E-result/hdac2

> <s_m_Source_File>
ligand_docking-pose.sdf

> <i_m_Source_File_Index>
64

> <i_lp_mmshare_version>
53161

> <r_lp_tautomer_probability>
1

> <s_lp_Force_Field>
OPLS_2005

> <r_lp_Energy>
7.402649

> <b_lp_Chiralities_Consistent>
1

> <s_lp_Variant>
184359-1

> <s_i_glide_gridfile>
glide-grid_3max

> <i_i_glide_lignum>
56

> <i_i_glide_rotatable_bonds>
9

> <r_i_docking_score>
-6.99866769127343

> <r_i_glide_ligand_efficiency>
-0.368350931119654

> <r_i_glide_ligand_efficiency_sa>
-0.982908230943245

> <r_i_glide_ligand_efficiency_ln>
-1.77431257733703

> <r_i_glide_gscore>
-6.99866769127343

> <r_i_glide_lipo>
-2.80926238113116

> <r_i_glide_hbond>
-0.32

> <r_i_glide_metal>
-2.3

> <r_i_glide_rewards>
-1.93833276942341

> <r_i_glide_evdw>
-14.4779357910156

> <r_i_glide_ecoul>
-12.9153718948364

> <r_i_glide_erotb>
3.27666714774097

> <r_i_glide_esite>
-0.246537114683589

> <r_i_glide_emodel>
-32.3779190493145

> <r_i_glide_energy>
-27.3933076858521

> <r_i_glide_einternal>
14.2086887359619

> <i_i_glide_confnum>
15

> <i_i_glide_posenum>
337

> <r_i_glide_eff_state_penalty>
0

> <i_f3d_flags>
0

> <s_user_duplicate_titles>
184359

> <s_m_subgroup_title>
dock_pv

> <s_m_subgroupid>
dock_pv1

> <b_m_subgroup_collapsed>
0

$$$$
209851
                    3D
 Schrodinger Suite 2021-1.
 45 47  0  0  1  0            999 V2000
   74.5439   36.4696    5.9191 C   0  0  0  0  0  0
   74.6373   35.0924    5.7510 C   0  0  0  0  0  0
   74.4022   34.5151    4.5069 C   0  0  0  0  0  0
   74.0632   35.3184    3.3904 C   0  0  0  0  0  0
   73.8183   34.7571    2.1099 C   0  0  0  0  0  0
   73.4591   35.5769    1.0383 C   0  0  0  0  0  0
   73.3886   36.9572    1.2079 C   0  0  0  0  0  0
   73.6359   37.5406    2.4479 C   0  0  0  0  0  0
   73.9698   36.7332    3.5630 C   0  0  0  0  0  0
   74.2181   37.2918    4.8436 C   0  0  0  0  0  0
   73.0786   34.9058   -0.5603 S   0  0  0  0  0  0
   72.6569   33.1432   -0.4028 C   0  0  0  0  0  0
   71.9723   32.5657   -1.6562 C   0  0  0  0  0  0
   71.2126   31.2372   -1.4516 C   0  0  0  0  0  0
   69.9956   31.3287   -0.5097 C   0  0  0  0  0  0
   69.0107   30.1456   -0.6336 C   0  0  0  0  0  0
   67.7569   30.3874    0.2349 C   0  0  0  0  0  0
   66.5430   29.4861   -0.0523 C   0  0  0  0  0  0
   66.2179   29.3151   -1.2179 O   0  0  0  0  0  0
   65.7274   28.9263    1.0156 C   0  0  0  0  0  0
   65.8181   29.1185    2.3116 N   0  0  0  0  0  0
   64.7502   28.5134    2.7977 C   0  0  0  0  0  0
   64.0164   27.9107    1.7958 C   0  0  0  0  0  0
   64.6484   28.1842    0.6367 O   0  0  0  0  0  0
   74.7372   36.9043    6.8888 H   0  0  0  0  0  0
   74.9062   34.4639    6.5872 H   0  0  0  0  0  0
   74.4909   33.4456    4.3838 H   0  0  0  0  0  0
   73.9039   33.6874    1.9835 H   0  0  0  0  0  0
   73.1240   37.5882    0.3712 H   0  0  0  0  0  0
   73.5698   38.6128    2.5664 H   0  0  0  0  0  0
   74.1518   38.3619    4.9817 H   0  0  0  0  0  0
   71.9679   33.0733    0.4310 H   0  0  0  0  0  0
   73.5411   32.5623   -0.1346 H   0  0  0  0  0  0
   72.7348   32.4176   -2.4227 H   0  0  0  0  0  0
   71.2832   33.3052   -2.0696 H   0  0  0  0  0  0
   71.8968   30.4613   -1.1029 H   0  0  0  0  0  0
   70.8631   30.9148   -2.4329 H   0  0  0  0  0  0
   69.4586   32.2548   -0.7215 H   0  0  0  0  0  0
   70.3350   31.4064    0.5241 H   0  0  0  0  0  0
   69.4957   29.2131   -0.3456 H   0  0  0  0  0  0
   68.7273   30.0254   -1.6813 H   0  0  0  0  0  0
   67.4192   31.3892   -0.0161 H   0  0  0  0  0  0
   68.0037   30.4040    1.2952 H   0  0  0  0  0  0
   64.5303   28.4871    3.8537 H   0  0  0  0  0  0
   63.1145   27.3146    1.7502 H   0  0  0  0  0  0
  1 10  1  0  0  0
  1  2  2  0  0  0
  1 25  1  0  0  0
  2  3  1  0  0  0
  2 26  1  0  0  0
  3  4  2  0  0  0
  3 27  1  0  0  0
  4  9  1  0  0  0
  4  5  1  0  0  0
  5  6  2  0  0  0
  5 28  1  0  0  0
  6  7  1  0  0  0
  6 11  1  0  0  0
  7  8  2  0  0  0
  7 29  1  0  0  0
  8  9  1  0  0  0
  8 30  1  0  0  0
  9 10  2  0  0  0
 10 31  1  0  0  0
 11 12  1  0  0  0
 12 13  1  0  0  0
 12 32  1  0  0  0
 12 33  1  0  0  0
 13 14  1  0  0  0
 13 34  1  0  0  0
 13 35  1  0  0  0
 14 15  1  0  0  0
 14 36  1  0  0  0
 14 37  1  0  0  0
 15 16  1  0  0  0
 15 38  1  0  0  0
 15 39  1  0  0  0
 16 17  1  0  0  0
 16 40  1  0  0  0
 16 41  1  0  0  0
 17 18  1  0  0  0
 17 42  1  0  0  0
 17 43  1  0  0  0
 18 19  2  0  0  0
 18 20  1  0  0  0
 20 24  1  0  0  0
 20 21  2  0  0  0
 21 22  1  0  0  0
 22 23  2  0  0  0
 22 44  1  0  0  0
 23 24  1  0  0  0
 23 45  1  0  0  0
M  END
> <s_m_entry_id>
52641

> <s_m_entry_name>
ligand_docking-pose.66

> <s_m_Source_Path>
/home/csk/Desktop/cluster/DUD-E-result/hdac2

> <s_m_Source_File>
ligand_docking-pose.sdf

> <i_m_Source_File_Index>
66

> <i_lp_mmshare_version>
53161

> <r_lp_tautomer_probability>
0.99990000499975

> <s_lp_Force_Field>
OPLS_2005

> <r_lp_Energy>
13.585054

> <b_lp_Chiralities_Consistent>
1

> <s_lp_Variant>
209851-1

> <s_i_glide_gridfile>
glide-grid_3max

> <i_i_glide_lignum>
70

> <i_i_glide_rotatable_bonds>
9

> <r_i_docking_score>
-6.976622248495

> <r_i_glide_ligand_efficiency>
-0.290692593687292

> <r_i_glide_ligand_efficiency_sa>
-0.838502535785816

> <r_i_glide_ligand_efficiency_ln>
-1.66982584039947

> <r_i_glide_gscore>
-6.976622248495

> <r_i_glide_lipo>
-1.91925501896983

> <r_i_glide_hbond>
0

> <r_i_glide_metal>
-2.3

> <r_i_glide_rewards>
-1.22133270354635

> <r_i_glide_evdw>
-38.7046356201172

> <r_i_glide_ecoul>
-4.33649492263794

> <r_i_glide_erotb>
1.14967149342273

> <r_i_glide_esite>
-0.1

> <r_i_glide_emodel>
-60.615833358002

> <r_i_glide_energy>
-43.0411305427551

> <r_i_glide_einternal>
5.66422414779663

> <i_i_glide_confnum>
8

> <i_i_glide_posenum>
207

> <r_i_glide_eff_state_penalty>
0

> <i_f3d_flags>
0

> <s_user_duplicate_titles>
209851

> <s_m_subgroup_title>
dock_pv

> <s_m_subgroupid>
dock_pv1

> <b_m_subgroup_collapsed>
0

$$$$
331364
                    3D
 Schrodinger Suite 2021-1.
 39 40  0  0  1  0            999 V2000
   73.8190   36.7334    3.9769 C   0  0  0  0  0  0
   73.4180   37.4550    2.8535 C   0  0  0  0  0  0
   73.5714   36.9010    1.5849 C   0  0  0  0  0  0
   74.1373   35.6310    1.4456 C   0  0  0  0  0  0
   74.5393   34.9150    2.5772 C   0  0  0  0  0  0
   74.3738   35.4628    3.8452 C   0  0  0  0  0  0
   74.3718   35.0376    0.0631 C   0  0  0  0  0  0
   73.5647   33.7795   -0.2112 C   0  0  0  0  0  0
   74.1260   32.5125   -0.0161 C   0  0  0  0  0  0
   73.3231   31.3998   -0.2898 C   0  0  0  0  0  0
   72.0752   31.5548   -0.7578 N   0  0  0  0  0  0
   71.5878   32.8059   -0.8648 C   0  0  0  0  0  0
   72.2801   33.9489   -0.6296 N   0  0  0  0  0  0
   69.8741   32.9150   -1.2160 S   0  0  0  0  0  0
   69.2371   31.2245   -1.1499 C   0  0  0  0  0  0
   67.8118   31.1366   -0.6228 C   0  0  0  0  0  0
   67.3717   29.6774   -0.5960 C   0  0  0  0  0  0
   65.9588   29.4155   -0.0799 C   0  0  0  0  0  0
   65.0180   29.7150   -0.8160 O   0  0  0  0  0  0
   65.8401   28.8787    1.1459 N   0  0  0  0  0  0
   64.5556   28.6261    1.6478 O   0  0  0  0  0  0
   73.8179   30.1657   -0.0161 O   0  0  0  0  0  0
   73.7063   37.1641    4.9610 H   0  0  0  0  0  0
   72.9912   38.4403    2.9666 H   0  0  0  0  0  0
   73.2644   37.4637    0.7153 H   0  0  0  0  0  0
   74.9899   33.9371    2.4756 H   0  0  0  0  0  0
   74.6904   34.9082    4.7169 H   0  0  0  0  0  0
   75.4354   34.8171   -0.0422 H   0  0  0  0  0  0
   74.1519   35.7756   -0.7102 H   0  0  0  0  0  0
   75.1316   32.3936    0.3626 H   0  0  0  0  0  0
   69.8448   30.6306   -0.4679 H   0  0  0  0  0  0
   69.3570   30.7629   -2.1298 H   0  0  0  0  0  0
   67.1310   31.7461   -1.2157 H   0  0  0  0  0  0
   67.8213   31.5437    0.3842 H   0  0  0  0  0  0
   68.1011   29.1192   -0.0158 H   0  0  0  0  0  0
   67.4180   29.3150   -1.6181 H   0  0  0  0  0  0
   66.5839   28.5840    1.7665 H   0  0  0  0  0  0
   64.4667   27.6706    1.5815 H   0  0  0  0  0  0
   74.5502   30.1889    0.6392 H   0  0  0  0  0  0
  1  6  1  0  0  0
  1  2  2  0  0  0
  1 23  1  0  0  0
  2  3  1  0  0  0
  2 24  1  0  0  0
  3  4  2  0  0  0
  3 25  1  0  0  0
  4  5  1  0  0  0
  4  7  1  0  0  0
  5  6  2  0  0  0
  5 26  1  0  0  0
  6 27  1  0  0  0
  7  8  1  0  0  0
  7 28  1  0  0  0
  7 29  1  0  0  0
  8 13  1  0  0  0
  8  9  2  0  0  0
  9 10  1  0  0  0
  9 30  1  0  0  0
 10 11  2  0  0  0
 10 22  1  0  0  0
 11 12  1  0  0  0
 12 13  2  0  0  0
 12 14  1  0  0  0
 14 15  1  0  0  0
 15 16  1  0  0  0
 15 31  1  0  0  0
 15 32  1  0  0  0
 16 17  1  0  0  0
 16 33  1  0  0  0
 16 34  1  0  0  0
 17 18  1  0  0  0
 17 35  1  0  0  0
 17 36  1  0  0  0
 18 19  2  0  0  0
 18 20  1  0  0  0
 20 21  1  0  0  0
 20 37  1  0  0  0
 21 38  1  0  0  0
 22 39  1  0  0  0
M  END
> <s_m_entry_id>
52642

> <s_m_entry_name>
ligand_docking-pose.67

> <s_m_Source_Path>
/home/csk/Desktop/cluster/DUD-E-result/hdac2

> <s_m_Source_File>
ligand_docking-pose.sdf

> <i_m_Source_File_Index>
67

> <i_lp_mmshare_version>
53161

> <r_lp_tautomer_probability>
0.0660144953277732

> <s_lp_Force_Field>
OPLS_2005

> <r_lp_Energy>
14.646251

> <b_lp_Chiralities_Consistent>
1

> <s_lp_Variant>
331364-3

> <s_i_glide_gridfile>
glide-grid_3max

> <i_i_glide_lignum>
143

> <i_i_glide_rotatable_bonds>
10

> <r_i_docking_score>
-6.84944392455034

> <r_i_glide_ligand_efficiency>
-0.311338360206834

> <r_i_glide_ligand_efficiency_sa>
-0.872382329542445

> <r_i_glide_ligand_efficiency_ln>
-1.67425393469766

> <r_i_glide_gscore>
-6.84944392455034

> <r_i_glide_lipo>
-0.456317343534358

> <r_i_glide_hbond>
-0.235279412803402

> <r_i_glide_metal>
-2.3

> <r_i_glide_rewards>
-1.46483483240406

> <r_i_glide_evdw>
-22.0404510498047

> <r_i_glide_ecoul>
-17.6954402923584

> <r_i_glide_erotb>
1.46332626053548

> <r_i_glide_esite>
-0.1

> <r_i_glide_emodel>
-53.3084823735393

> <r_i_glide_energy>
-39.7358913421631

> <r_i_glide_einternal>
8.02246189117432

> <i_i_glide_confnum>
172

> <i_i_glide_posenum>
275

> <r_i_glide_eff_state_penalty>
0

> <i_f3d_flags>
0

> <s_user_duplicate_titles>
331364

> <s_m_subgroup_title>
dock_pv

> <s_m_subgroupid>
dock_pv1

> <b_m_subgroup_collapsed>
0

$$$$
