CHEMBL1952_lig276
                    3D
 Schrodinger Suite 2021-1.
 56 59  0  0  1  0            999 V2000
   13.2577    7.8291   35.9908 C   0  0  0  0  0  0
   13.9177   10.1968   36.4315 N   0  0  0  0  0  0
   12.7244    6.7393   36.6091 O   0  0  0  0  0  0
   13.4744   19.0278   33.0984 N   0  0  0  0  0  0
   12.7289   19.2433   31.9721 C   0  0  0  0  0  0
   12.8973   18.5104   30.9319 N   0  0  0  0  0  0
   13.8636   17.5509   30.9925 C   0  0  0  0  0  0
   14.6839   17.2880   32.0943 C   0  0  0  0  0  0
   14.4633   18.1146   33.2972 C   0  0  0  0  0  0
   15.0062   18.1149   34.3908 O   0  0  0  0  0  0
   13.0714    9.0820   36.8765 C   0  0  1  0  0  0
   11.5865    9.5413   36.9358 C   0  0  0  0  0  0
   11.6664   10.9821   39.0869 C   0  0  0  0  0  0
   11.2992   10.9103   37.6025 C   0  0  0  0  0  0
   11.7919   20.2878   31.9907 N   0  0  0  0  0  0
   15.8997    9.4284   37.2023 O   0  0  0  0  0  0
   17.0924   14.0557   30.7487 C   0  0  0  0  0  0
   17.3895   14.5541   31.9937 C   0  0  0  0  0  0
   17.8472   12.6619   35.1914 C   0  0  0  0  0  0
   15.8238   13.9073   35.6146 C   0  0  0  0  0  0
   17.2232   11.4983   35.6339 C   0  0  0  0  0  0
   15.1998   12.7506   36.0592 C   0  0  0  0  0  0
   16.1116   14.6287   29.9623 C   0  0  0  0  0  0
   17.0771   16.0358   33.9910 C   0  0  0  0  0  0
   17.8273   15.0243   34.7403 N   0  0  0  0  0  0
   14.1513   16.5628   29.6045 S   0  0  0  0  0  0
   15.2451   10.2874   36.6158 C   0  0  0  0  0  0
   17.1552   13.8743   35.1882 C   0  0  0  0  0  0
   15.8959   11.5346   36.0783 C   0  0  0  0  0  0
   16.6699   15.6072   32.5804 C   0  0  0  0  0  0
   15.3954   15.7067   30.4870 C   0  0  0  0  0  0
   15.6225   16.2171   31.8186 C   0  0  0  0  0  0
   13.0101   11.0561   39.2985 O   0  0  0  0  0  0
   10.8353   11.0002   39.9907 O   0  0  0  0  0  0
   13.8010    7.8281   34.9049 O   0  0  0  0  0  0
   13.4774   10.8675   35.8219 H   0  0  0  0  0  0
   12.8182    5.9569   36.0597 H   0  0  0  0  0  0
   13.3171   19.6512   33.8870 H   0  0  0  0  0  0
   13.3945    8.8029   37.8816 H   0  0  0  0  0  0
   10.9959    8.7779   37.4474 H   0  0  0  0  0  0
   11.1807    9.5831   35.9216 H   0  0  0  0  0  0
   10.2302   11.1139   37.5209 H   0  0  0  0  0  0
   11.7889   11.7258   37.0680 H   0  0  0  0  0  0
   11.0755   20.2824   31.2749 H   0  0  0  0  0  0
   11.4523   20.6245   32.8785 H   0  0  0  0  0  0
   17.6644   13.2119   30.3909 H   0  0  0  0  0  0
   18.2035   14.0639   32.5072 H   0  0  0  0  0  0
   18.8736   12.6132   34.8566 H   0  0  0  0  0  0
   15.2597   14.8250   35.6532 H   0  0  0  0  0  0
   17.7853   10.5744   35.6440 H   0  0  0  0  0  0
   14.1812   12.8257   36.4101 H   0  0  0  0  0  0
   15.9116   14.2445   28.9702 H   0  0  0  0  0  0
   16.1772   16.2283   34.5530 H   0  0  0  0  0  0
   17.6406   16.9690   33.9627 H   0  0  0  0  0  0
   18.7757   14.8795   34.4309 H   0  0  0  0  0  0
   13.5108   10.9993   38.4801 H   0  0  0  0  0  0
  1 35  2  0  0  0
  1  3  1  0  0  0
  1 11  1  0  0  0
  2 11  1  0  0  0
  2 27  1  0  0  0
  2 36  1  0  0  0
  3 37  1  0  0  0
  4  5  1  0  0  0
  4  9  1  0  0  0
  4 38  1  0  0  0
  5 15  1  0  0  0
  5  6  2  0  0  0
  6  7  1  0  0  0
  7  8  2  0  0  0
  7 26  1  0  0  0
  8  9  1  0  0  0
  8 32  1  0  0  0
  9 10  2  0  0  0
 11 12  1  0  0  0
 11 39  1  0  0  0
 12 14  1  0  0  0
 12 40  1  0  0  0
 12 41  1  0  0  0
 13 34  2  0  0  0
 13 14  1  0  0  0
 13 33  1  0  0  0
 14 42  1  0  0  0
 14 43  1  0  0  0
 15 44  1  0  0  0
 15 45  1  0  0  0
 16 27  2  0  0  0
 17 23  2  0  0  0
 17 18  1  0  0  0
 17 46  1  0  0  0
 18 30  2  0  0  0
 18 47  1  0  0  0
 19 21  2  0  0  0
 19 28  1  0  0  0
 19 48  1  0  0  0
 20 28  2  0  0  0
 20 22  1  0  0  0
 20 49  1  0  0  0
 21 29  1  0  0  0
 21 50  1  0  0  0
 22 29  2  0  0  0
 22 51  1  0  0  0
 23 31  1  0  0  0
 23 52  1  0  0  0
 24 25  1  0  0  0
 24 30  1  0  0  0
 24 53  1  0  0  0
 24 54  1  0  0  0
 25 28  1  0  0  0
 25 55  1  0  0  0
 26 31  1  0  0  0
 27 29  1  0  0  0
 30 32  1  0  0  0
 31 32  2  0  0  0
 33 56  1  0  0  0
M  END
> <s_m_entry_id>
40885

> <s_m_entry_name>
dock_pv.2

> <s_m_Source_Path>
/home/csk/Desktop/cluster/DUD-E-result/tysy

> <s_m_Source_File>
dock_pv.maegz

> <i_m_Source_File_Index>
2

> <chembl_id>
CHEMBL1738741

> <chembl_pref_name>
None

> <i_lp_mmshare_version>
53161

> <r_lp_tautomer_probability>
1

> <s_lp_Force_Field>
OPLS_2005

> <r_lp_Energy>
30.391981

> <b_lp_Chiralities_Consistent>
1

> <s_lp_Variant>
CHEMBL1952_lig276-1

> <s_i_glide_gridfile>
glide-grid_1syn

> <i_i_glide_lignum>
546

> <i_i_glide_rotatable_bonds>
12

> <r_i_docking_score>
-10.3250233072068

> <r_i_glide_ligand_efficiency>
-0.295000665920195

> <r_i_glide_ligand_efficiency_sa>
-0.964966738631151

> <r_i_glide_ligand_efficiency_ln>
-2.26657176747784

> <r_i_glide_gscore>
-10.3250233072068

> <r_i_glide_lipo>
-4.28425965736552

> <r_i_glide_hbond>
-1.10532150285258

> <r_i_glide_metal>
0

> <r_i_glide_rewards>
-0.722587207279618

> <r_i_glide_evdw>
-58.4682922363281

> <r_i_glide_ecoul>
-13.928674697876

> <r_i_glide_erotb>
0.83028391678637

> <r_i_glide_esite>
-0.0304230399976772

> <r_i_glide_emodel>
-112.916592229881

> <r_i_glide_energy>
-72.3969669342041

> <r_i_glide_einternal>
11.0323028564453

> <i_i_glide_confnum>
224

> <i_i_glide_posenum>
81

> <r_i_glide_eff_state_penalty>
0

> <s_user_duplicate_titles>
CHEMBL1952_lig276

> <i_f3d_flags>
0

> <s_m_subgroup_title>
dock_pv

> <s_m_subgroupid>
dock_pv

> <b_m_subgroup_collapsed>
1

$$$$
CHEMBL1952_lig273
                    3D
 Schrodinger Suite 2021-1.
 61 65  0  0  1  0            999 V2000
   12.7882   18.6200   30.8283 N   0  0  0  0  0  0
   12.6380   19.3080   31.8999 C   0  0  0  0  0  0
   11.6397   20.4392   31.9611 C   0  0  0  0  0  0
   13.3632   19.0277   33.0222 N   0  0  0  0  0  0
   14.3276   18.0847   33.1661 C   0  0  0  0  0  0
   14.9033   17.9791   34.2465 O   0  0  0  0  0  0
   14.5609   17.2728   31.8905 C   0  0  0  0  0  0
   15.5506   16.2291   31.7725 C   0  0  0  0  0  0
   16.4676   15.8597   32.7985 C   0  0  0  0  0  0
   17.3972   14.8301   32.6291 C   0  0  0  0  0  0
   17.4496   14.1465   31.4215 C   0  0  0  0  0  0
   16.5904   14.4801   30.3827 C   0  0  0  0  0  0
   15.6406   15.5201   30.5296 C   0  0  0  0  0  0
   14.7851   15.8648   29.4558 C   0  0  0  0  0  0
   13.8633   16.8950   29.5871 C   0  0  0  0  0  0
   13.7472   17.5889   30.7835 C   0  0  0  0  0  0
   18.3733   14.4625   33.7471 C   0  0  0  0  0  0
   17.7429   14.5641   35.0634 N   0  0  0  0  0  0
   16.8543   13.5849   35.5265 C   0  0  0  0  0  0
   16.9757   12.2281   35.1965 C   0  0  0  0  0  0
   16.1114   11.3008   35.7782 C   0  0  0  0  0  0
   15.1457   11.7056   36.6747 C   0  0  0  0  0  0
   14.9735   13.0536   36.9732 C   0  0  0  0  0  0
   15.8308   13.9893   36.3910 C   0  0  0  0  0  0
   16.0419    9.8205   35.6465 C   0  0  0  0  0  0
   14.4413   10.5093   37.2312 C   0  0  0  0  0  0
   13.5638   10.4925   38.0944 O   0  0  0  0  0  0
   14.9943    9.4386   36.5941 N   0  0  0  0  0  0
   14.4682    8.0523   36.6471 C   0  0  2  0  0  0
   13.0139    7.9363   36.1223 C   0  0  0  0  0  0
   12.0605    7.5962   36.7885 O   0  0  0  0  0  0
   12.9920    8.2279   34.7916 O   0  0  0  0  0  0
   14.6885    7.3948   38.0433 C   0  0  0  0  0  0
   14.2543    5.9032   38.1400 C   0  0  0  0  0  0
   15.3918    4.9253   38.4431 C   0  0  0  0  0  0
   16.1925    5.0748   39.3658 O   0  0  0  0  0  0
   15.4126    3.8550   37.5942 O   0  0  0  0  0  0
   11.6561   21.0276   31.0421 H   0  0  0  0  0  0
   10.6298   20.0465   32.0719 H   0  0  0  0  0  0
   11.8384   21.1167   32.7898 H   0  0  0  0  0  0
   13.2051   19.6087   33.8416 H   0  0  0  0  0  0
   16.4644   16.3790   33.7385 H   0  0  0  0  0  0
   18.1683   13.3496   31.2784 H   0  0  0  0  0  0
   16.6351   13.9348   29.4515 H   0  0  0  0  0  0
   14.8611   15.3275   28.5207 H   0  0  0  0  0  0
   13.2326   17.1595   28.7513 H   0  0  0  0  0  0
   19.2211   15.1479   33.7081 H   0  0  0  0  0  0
   18.7858   13.4685   33.5732 H   0  0  0  0  0  0
   17.5968   15.4987   35.4092 H   0  0  0  0  0  0
   17.7583   11.8894   34.5351 H   0  0  0  0  0  0
   14.2156   13.3805   37.6701 H   0  0  0  0  0  0
   15.7146   15.0287   36.6491 H   0  0  0  0  0  0
   16.9971    9.4042   35.9287 H   0  0  0  0  0  0
   15.7977    9.4965   34.6348 H   0  0  0  0  0  0
   15.0753    7.4653   35.9551 H   0  0  0  0  0  0
   12.1203    7.9907   34.4308 H   0  0  0  0  0  0
   14.1373    7.9596   38.7939 H   0  0  0  0  0  0
   15.7359    7.5020   38.3281 H   0  0  0  0  0  0
   13.7499    5.5722   37.2326 H   0  0  0  0  0  0
   13.5176    5.7962   38.9377 H   0  0  0  0  0  0
   14.7236    3.8579   36.9182 H   0  0  0  0  0  0
  1  2  2  0  0  0
  1 16  1  0  0  0
  2  3  1  0  0  0
  2  4  1  0  0  0
  3 38  1  0  0  0
  3 39  1  0  0  0
  3 40  1  0  0  0
  4  5  1  0  0  0
  4 41  1  0  0  0
  5  6  2  0  0  0
  5  7  1  0  0  0
  7  8  2  0  0  0
  7 16  1  0  0  0
  8  9  1  0  0  0
  8 13  1  0  0  0
  9 10  2  0  0  0
  9 42  1  0  0  0
 10 11  1  0  0  0
 10 17  1  0  0  0
 11 12  2  0  0  0
 11 43  1  0  0  0
 12 13  1  0  0  0
 12 44  1  0  0  0
 13 14  2  0  0  0
 14 15  1  0  0  0
 14 45  1  0  0  0
 15 16  2  0  0  0
 15 46  1  0  0  0
 17 18  1  0  0  0
 17 47  1  0  0  0
 17 48  1  0  0  0
 18 19  1  0  0  0
 18 49  1  0  0  0
 19 20  2  0  0  0
 19 24  1  0  0  0
 20 21  1  0  0  0
 20 50  1  0  0  0
 21 22  2  0  0  0
 21 25  1  0  0  0
 22 23  1  0  0  0
 22 26  1  0  0  0
 23 24  2  0  0  0
 23 51  1  0  0  0
 24 52  1  0  0  0
 25 28  1  0  0  0
 25 53  1  0  0  0
 25 54  1  0  0  0
 26 27  2  0  0  0
 26 28  1  0  0  0
 28 29  1  0  0  0
 29 30  1  0  0  0
 29 33  1  0  0  0
 29 55  1  0  0  0
 30 31  2  0  0  0
 30 32  1  0  0  0
 32 56  1  0  0  0
 33 34  1  0  0  0
 33 57  1  0  0  0
 33 58  1  0  0  0
 34 35  1  0  0  0
 34 59  1  0  0  0
 34 60  1  0  0  0
 35 36  2  0  0  0
 35 37  1  0  0  0
 37 61  1  0  0  0
M  END
> <s_m_entry_id>
40886

> <s_m_entry_name>
dock_pv.3

> <s_m_Source_Path>
/home/csk/Desktop/cluster/DUD-E-result/tysy

> <s_m_Source_File>
dock_pv.maegz

> <i_m_Source_File_Index>
3

> <chembl_id>
CHEMBL169896

> <chembl_pref_name>
OSI-7904

> <i_lp_mmshare_version>
53161

> <r_lp_tautomer_probability>
1

> <s_lp_Force_Field>
OPLS_2005

> <r_lp_Energy>
54.59665

> <b_lp_Chiralities_Consistent>
1

> <s_lp_Variant>
CHEMBL1952_lig273-1

> <s_i_glide_gridfile>
glide-grid_1syn

> <i_i_glide_lignum>
543

> <i_i_glide_rotatable_bonds>
10

> <r_i_docking_score>
-10.2442240175962

> <r_i_glide_ligand_efficiency>
-0.276870919394492

> <r_i_glide_ligand_efficiency_sa>
-0.922595326581159

> <r_i_glide_ligand_efficiency_ln>
-2.22173203073169

> <r_i_glide_gscore>
-10.2442240175962

> <r_i_glide_lipo>
-4.50816545589994

> <r_i_glide_hbond>
-0.16

> <r_i_glide_metal>
0

> <r_i_glide_rewards>
-0.895520982863503

> <r_i_glide_evdw>
-61.4556198120117

> <r_i_glide_ecoul>
-14.9008283615112

> <r_i_glide_erotb>
0.652130850418022

> <r_i_glide_esite>
-0.0247631844235058

> <r_i_glide_emodel>
-121.395050018592

> <r_i_glide_energy>
-76.3564481735229

> <r_i_glide_einternal>
8.55673503875732

> <i_i_glide_confnum>
34

> <i_i_glide_posenum>
105

> <r_i_glide_eff_state_penalty>
0

> <s_user_duplicate_titles>
CHEMBL1952_lig273,280832

> <i_f3d_flags>
0

> <s_m_subgroup_title>
dock_pv

> <s_m_subgroupid>
dock_pv

> <b_m_subgroup_collapsed>
1

$$$$
CHEMBL1952_lig277
                    3D
 Schrodinger Suite 2021-1.
 57 61  0  0  1  0            999 V2000
   12.6732   11.0679   39.5758 C   0  0  0  0  0  0
   14.1718   11.1225   37.5149 N   0  0  0  0  0  0
   13.3980   11.8135   40.1999 O   0  0  0  0  0  0
   13.3735   19.0281   33.1351 N   0  0  0  0  0  0
   12.6286   19.3292   32.0205 C   0  0  0  0  0  0
   12.7192   18.6072   30.9705 N   0  0  0  0  0  0
   13.6391   17.6072   30.9869 C   0  0  0  0  0  0
   14.4984   17.2968   32.0442 C   0  0  0  0  0  0
   14.3648   18.1039   33.2695 C   0  0  0  0  0  0
   14.9901   18.0851   34.3213 O   0  0  0  0  0  0
   12.9931   10.4854   38.1750 C   0  0  1  0  0  0
   12.9888    8.9278   38.1782 C   0  0  0  0  0  0
   13.4811    6.9196   36.6547 C   0  0  0  0  0  0
   12.8638    8.3139   36.7648 C   0  0  0  0  0  0
   11.7920   20.4554   32.0400 N   0  0  0  0  0  0
   15.7921    9.4320   37.4930 O   0  0  0  0  0  0
   16.8354   14.1496   30.4389 C   0  0  0  0  0  0
   17.8795   12.6306   35.1582 C   0  0  0  0  0  0
   17.1701   14.5609   31.7125 C   0  0  0  0  0  0
   17.3595   11.4975   35.7880 C   0  0  0  0  0  0
   15.8037   14.7334   29.7348 C   0  0  0  0  0  0
   15.8800   13.8700   35.7218 C   0  0  0  0  0  0
   16.9068   15.9365   33.8089 C   0  0  0  0  0  0
   14.0679   12.5080   37.0464 C   0  0  0  0  0  0
   17.7338   14.9281   34.4751 N   0  0  0  0  0  0
   13.7991   16.6271   29.5886 S   0  0  0  0  0  0
   15.3701   10.5486   37.1899 C   0  0  0  0  0  0
   17.1487   13.8242   35.1185 C   0  0  0  0  0  0
   15.3666   12.7369   36.3483 C   0  0  0  0  0  0
   16.4667   15.5705   32.3877 C   0  0  0  0  0  0
   16.1036   11.5761   36.3908 C   0  0  0  0  0  0
   15.1048   15.7666   30.3552 C   0  0  0  0  0  0
   15.3987   16.2202   31.6926 C   0  0  0  0  0  0
   14.3516    6.4808   37.4038 O   0  0  0  0  0  0
   12.9919    6.2281   35.5910 O   0  0  0  0  0  0
   11.4312   10.6644   39.9759 O   0  0  0  0  0  0
   13.2662   19.6458   33.9366 H   0  0  0  0  0  0
   12.1445   10.7824   37.5562 H   0  0  0  0  0  0
   12.1517    8.5480   38.7637 H   0  0  0  0  0  0
   13.8632    8.5598   38.7153 H   0  0  0  0  0  0
   13.3654    8.9337   36.0224 H   0  0  0  0  0  0
   11.8134    8.2822   36.4734 H   0  0  0  0  0  0
   11.0805   20.5286   31.3241 H   0  0  0  0  0  0
   11.4956   20.8277   32.9304 H   0  0  0  0  0  0
   17.3922   13.3440   29.9941 H   0  0  0  0  0  0
   18.8564   12.5720   34.6985 H   0  0  0  0  0  0
   18.0013   14.0466   32.1734 H   0  0  0  0  0  0
   17.9455   10.5900   35.8230 H   0  0  0  0  0  0
   15.5585   14.3995   28.7357 H   0  0  0  0  0  0
   15.2933   14.7737   35.7353 H   0  0  0  0  0  0
   16.0179   16.0807   34.4047 H   0  0  0  0  0  0
   17.4361   16.8902   33.7928 H   0  0  0  0  0  0
   13.2146   12.6290   36.3780 H   0  0  0  0  0  0
   13.9367   13.1895   37.8881 H   0  0  0  0  0  0
   18.6470   14.7775   34.0709 H   0  0  0  0  0  0
   12.2799    6.6565   35.0970 H   0  0  0  0  0  0
   10.9984   10.1158   39.3189 H   0  0  0  0  0  0
  1 11  1  0  0  0
  1  3  2  0  0  0
  1 36  1  0  0  0
  2 11  1  0  0  0
  2 24  1  0  0  0
  2 27  1  0  0  0
  4  5  1  0  0  0
  4  9  1  0  0  0
  4 37  1  0  0  0
  5 15  1  0  0  0
  5  6  2  0  0  0
  6  7  1  0  0  0
  7  8  2  0  0  0
  7 26  1  0  0  0
  8  9  1  0  0  0
  8 33  1  0  0  0
  9 10  2  0  0  0
 11 12  1  0  0  0
 11 38  1  0  0  0
 12 14  1  0  0  0
 12 39  1  0  0  0
 12 40  1  0  0  0
 13 14  1  0  0  0
 13 34  2  0  0  0
 13 35  1  0  0  0
 14 41  1  0  0  0
 14 42  1  0  0  0
 15 43  1  0  0  0
 15 44  1  0  0  0
 16 27  2  0  0  0
 17 19  2  0  0  0
 17 21  1  0  0  0
 17 45  1  0  0  0
 18 28  2  0  0  0
 18 20  1  0  0  0
 18 46  1  0  0  0
 19 30  1  0  0  0
 19 47  1  0  0  0
 20 31  2  0  0  0
 20 48  1  0  0  0
 21 32  2  0  0  0
 21 49  1  0  0  0
 22 29  2  0  0  0
 22 28  1  0  0  0
 22 50  1  0  0  0
 23 30  1  0  0  0
 23 25  1  0  0  0
 23 51  1  0  0  0
 23 52  1  0  0  0
 24 29  1  0  0  0
 24 53  1  0  0  0
 24 54  1  0  0  0
 25 28  1  0  0  0
 25 55  1  0  0  0
 26 32  1  0  0  0
 27 31  1  0  0  0
 29 31  1  0  0  0
 30 33  2  0  0  0
 32 33  1  0  0  0
 35 56  1  0  0  0
 36 57  1  0  0  0
M  END
> <s_m_entry_id>
40887

> <s_m_entry_name>
dock_pv.4

> <s_m_Source_Path>
/home/csk/Desktop/cluster/DUD-E-result/tysy

> <s_m_Source_File>
dock_pv.maegz

> <i_m_Source_File_Index>
4

> <chembl_id>
CHEMBL1738740

> <chembl_pref_name>
None

> <i_lp_mmshare_version>
53161

> <r_lp_tautomer_probability>
1

> <s_lp_Force_Field>
OPLS_2005

> <r_lp_Energy>
51.072761

> <b_lp_Chiralities_Consistent>
1

> <s_lp_Variant>
CHEMBL1952_lig277-1

> <s_i_glide_gridfile>
glide-grid_1syn

> <i_i_glide_lignum>
547

> <i_i_glide_rotatable_bonds>
10

> <r_i_docking_score>
-10.1495192236492

> <r_i_glide_ligand_efficiency>
-0.281931089545812

> <r_i_glide_ligand_efficiency_sa>
-0.930915945769882

> <r_i_glide_ligand_efficiency_ln>
-2.21435088627951

> <r_i_glide_gscore>
-10.1495192236492

> <r_i_glide_lipo>
-4.3364113310323

> <r_i_glide_hbond>
-0.762997506367208

> <r_i_glide_metal>
0

> <r_i_glide_rewards>
-0.769673528055625

> <r_i_glide_evdw>
-58.1894187927246

> <r_i_glide_ecoul>
-13.1449604034424

> <r_i_glide_erotb>
0.63568682395003

> <r_i_glide_esite>
-0.0349086819915344

> <r_i_glide_emodel>
-112.259125142368

> <r_i_glide_energy>
-71.334379196167

> <r_i_glide_einternal>
9.7934627532959

> <i_i_glide_confnum>
63

> <i_i_glide_posenum>
396

> <r_i_glide_eff_state_penalty>
0

> <s_user_duplicate_titles>
CHEMBL1952_lig277

> <i_f3d_flags>
0

> <s_m_subgroup_title>
dock_pv

> <s_m_subgroupid>
dock_pv

> <b_m_subgroup_collapsed>
1

$$$$
CHEMBL1952_lig338
                    3D
 Schrodinger Suite 2021-1.
 59 62  0  0  1  0            999 V2000
   14.4816   18.1148   32.8546 C   0  0  0  0  0  0
   14.7518   17.1948   31.7729 C   0  0  0  0  0  0
   13.4960   19.0277   32.7903 N   0  0  0  0  0  0
   12.7579   19.0768   31.6771 C   0  0  0  0  0  0
   12.8743   18.2750   30.6065 N   0  0  0  0  0  0
   13.8634   17.3414   30.6559 C   0  0  0  0  0  0
   15.7883   16.1958   31.7051 C   0  0  0  0  0  0
   15.3995   10.3044   36.7905 C   0  0  0  0  0  0
   14.1062   10.5841   36.5455 N   0  0  0  0  0  0
   11.9560    9.3981   36.1205 C   0  0  0  0  0  0
   12.9501    9.9388   37.1772 C   0  0  2  0  0  0
   15.2209   18.0927   33.9912 O   0  0  0  0  0  0
   16.3834   11.1787   36.0677 C   0  0  0  0  0  0
   15.8557   15.3530   30.5501 C   0  0  0  0  0  0
   16.7908   15.9915   32.7111 C   0  0  0  0  0  0
   12.6008   12.4670   40.2011 C   0  0  0  0  0  0
   13.9889   16.5133   29.5325 C   0  0  0  0  0  0
   15.7895    9.4245   37.5615 O   0  0  0  0  0  0
   10.7579    9.5920   36.1544 O   0  0  0  0  0  0
   19.1663   13.5495   34.0142 N   0  0  0  0  0  0
   11.7921   20.0632   31.6463 N   0  0  0  0  0  0
   11.9001   12.2582   41.1901 O   0  0  0  0  0  0
   14.9500   15.5225   29.4872 C   0  0  0  0  0  0
   12.3008   10.9380   38.1808 C   0  0  0  0  0  0
   17.5722   10.6321   35.5729 C   0  0  0  0  0  0
   16.1394   12.5489   35.9200 C   0  0  0  0  0  0
   16.8435   14.3489   30.4597 C   0  0  0  0  0  0
   17.7912   15.0281   32.5701 C   0  0  0  0  0  0
   18.2291   12.7968   34.7331 C   0  0  0  0  0  0
   13.2192   11.3613   39.3501 C   0  0  0  0  0  0
   12.5955    8.6274   35.1909 O   0  0  0  0  0  0
   18.9060   14.9290   33.6131 C   0  0  0  0  0  0
   12.9199   13.7133   39.7486 O   0  0  0  0  0  0
   17.0559   13.3521   35.2572 C   0  0  0  0  0  0
   18.4885   11.4393   34.9058 C   0  0  0  0  0  0
   17.7961   14.1992   31.4536 C   0  0  0  0  0  0
   13.2773    9.0596   37.7368 H   0  0  0  0  0  0
   13.8904   11.2562   35.8247 H   0  0  0  0  0  0
   14.8572   18.7587   34.5813 H   0  0  0  0  0  0
   16.8493   16.6015   33.5891 H   0  0  0  0  0  0
   13.3206   16.6570   28.6973 H   0  0  0  0  0  0
   19.9615   13.0647   33.5972 H   0  0  0  0  0  0
   11.0796   20.0280   30.9232 H   0  0  0  0  0  0
   11.6900   20.6291   32.4740 H   0  0  0  0  0  0
   15.0221   14.8855   28.6174 H   0  0  0  0  0  0
   11.4017   10.4905   38.6070 H   0  0  0  0  0  0
   11.9631   11.8263   37.6420 H   0  0  0  0  0  0
   17.7833    9.5819   35.6684 H   0  0  0  0  0  0
   15.2444   13.0075   36.3161 H   0  0  0  0  0  0
   16.8688   13.7076   29.5911 H   0  0  0  0  0  0
   14.1926   11.6967   38.9927 H   0  0  0  0  0  0
   13.4173   10.4979   39.9866 H   0  0  0  0  0  0
   11.9582    8.1684   34.6209 H   0  0  0  0  0  0
   18.6684   15.5324   34.4894 H   0  0  0  0  0  0
   19.8189   15.3477   33.1909 H   0  0  0  0  0  0
   13.4571   13.7043   38.9537 H   0  0  0  0  0  0
   16.8380   14.4027   35.1545 H   0  0  0  0  0  0
   19.3914   11.0037   34.5014 H   0  0  0  0  0  0
   18.5595   13.4410   31.3420 H   0  0  0  0  0  0
  1  2  1  0  0  0
  1  3  2  0  0  0
  1 12  1  0  0  0
  2  6  2  0  0  0
  2  7  1  0  0  0
  3  4  1  0  0  0
  4  5  2  0  0  0
  4 21  1  0  0  0
  5  6  1  0  0  0
  6 17  1  0  0  0
  7 14  2  0  0  0
  7 15  1  0  0  0
  8 13  1  0  0  0
  8  9  1  0  0  0
  8 18  2  0  0  0
  9 11  1  0  0  0
  9 38  1  0  0  0
 10 11  1  0  0  0
 10 19  2  0  0  0
 10 31  1  0  0  0
 11 24  1  0  0  0
 11 37  1  0  0  0
 12 39  1  0  0  0
 13 25  2  0  0  0
 13 26  1  0  0  0
 14 23  1  0  0  0
 14 27  1  0  0  0
 15 28  2  0  0  0
 15 40  1  0  0  0
 16 30  1  0  0  0
 16 22  2  0  0  0
 16 33  1  0  0  0
 17 23  2  0  0  0
 17 41  1  0  0  0
 20 32  1  0  0  0
 20 29  1  0  0  0
 20 42  1  0  0  0
 21 43  1  0  0  0
 21 44  1  0  0  0
 23 45  1  0  0  0
 24 30  1  0  0  0
 24 46  1  0  0  0
 24 47  1  0  0  0
 25 35  1  0  0  0
 25 48  1  0  0  0
 26 34  2  0  0  0
 26 49  1  0  0  0
 27 36  2  0  0  0
 27 50  1  0  0  0
 28 32  1  0  0  0
 28 36  1  0  0  0
 29 34  1  0  0  0
 29 35  2  0  0  0
 30 51  1  0  0  0
 30 52  1  0  0  0
 31 53  1  0  0  0
 32 54  1  0  0  0
 32 55  1  0  0  0
 33 56  1  0  0  0
 34 57  1  0  0  0
 35 58  1  0  0  0
 36 59  1  0  0  0
M  END
> <s_m_entry_id>
40888

> <s_m_entry_name>
dock_pv.5

> <s_m_Source_Path>
/home/csk/Desktop/cluster/DUD-E-result/tysy

> <s_m_Source_File>
dock_pv.maegz

> <i_m_Source_File_Index>
5

> <chembl_id>
CHEMBL355662

> <chembl_pref_name>
None

> <i_lp_mmshare_version>
53161

> <r_lp_tautomer_probability>
1

> <s_lp_Force_Field>
OPLS_2005

> <r_lp_Energy>
21.268368

> <b_lp_Chiralities_Consistent>
1

> <s_lp_Variant>
CHEMBL1952_lig338-1

> <s_i_glide_gridfile>
glide-grid_1syn

> <i_i_glide_lignum>
613

> <i_i_glide_rotatable_bonds>
13

> <r_i_docking_score>
-10.0136982409558

> <r_i_glide_ligand_efficiency>
-0.278158284470993

> <r_i_glide_ligand_efficiency_sa>
-0.918458417903452

> <r_i_glide_ligand_efficiency_ln>
-2.18471841731469

> <r_i_glide_gscore>
-10.0136982409558

> <r_i_glide_lipo>
-3.81927426657934

> <r_i_glide_hbond>
-0.759876951611876

> <r_i_glide_metal>
0

> <r_i_glide_rewards>
-0.926803574765416

> <r_i_glide_evdw>
-57.6684837341309

> <r_i_glide_ecoul>
-15.7844142913818

> <r_i_glide_erotb>
0.849106226688173

> <r_i_glide_esite>
-0.105763344273478

> <r_i_glide_emodel>
-117.283170903771

> <r_i_glide_energy>
-73.4528980255127

> <r_i_glide_einternal>
5.81586122512817

> <i_i_glide_confnum>
56

> <i_i_glide_posenum>
159

> <r_i_glide_eff_state_penalty>
0

> <s_user_duplicate_titles>
CHEMBL1952_lig338,281215

> <i_f3d_flags>
0

> <s_m_subgroup_title>
dock_pv

> <s_m_subgroupid>
dock_pv

> <b_m_subgroup_collapsed>
1

$$$$
CHEMBL1952_lig365
                    3D
 Schrodinger Suite 2021-1.
 59 62  0  0  1  0            999 V2000
   19.0645   14.5089   34.2211 S   0  0  0  0  0  0
   14.5647   17.8460   32.9661 C   0  0  0  0  0  0
   14.6359   17.0880   31.7448 C   0  0  0  0  0  0
   13.6571   18.8201   33.1496 N   0  0  0  0  0  0
   12.7993   19.0807   32.1530 C   0  0  0  0  0  0
   12.7364   18.4428   30.9725 N   0  0  0  0  0  0
   13.6364   17.4413   30.7789 C   0  0  0  0  0  0
   15.5644   16.0383   31.4329 C   0  0  0  0  0  0
   15.3509   10.3873   36.7087 C   0  0  0  0  0  0
   18.7752   14.3447   32.5028 N   0  0  0  0  0  0
   14.0389   10.6354   36.5541 N   0  0  0  0  0  0
   17.9970   13.2829   34.9538 C   0  0  0  0  0  0
   11.9473    9.3807   36.1256 C   0  0  0  0  0  0
   12.9453    9.8936   37.1875 C   0  0  2  0  0  0
   18.5945   15.8280   34.6457 O   0  0  0  0  0  0
   20.4558   14.1119   34.4404 O   0  0  0  0  0  0
   16.7136   15.7001   32.2240 C   0  0  0  0  0  0
   16.2725   11.3971   36.0717 C   0  0  0  0  0  0
   15.3920   17.5597   34.0027 O   0  0  0  0  0  0
   15.3710   15.2921   30.2298 C   0  0  0  0  0  0
   12.6014   12.1898   40.4100 C   0  0  0  0  0  0
   17.5596   14.6422   31.8761 C   0  0  0  0  0  0
   13.5361   16.7362   29.5742 C   0  0  0  0  0  0
   15.7920    9.4290   37.3464 O   0  0  0  0  0  0
   10.7542    9.5898   36.1562 O   0  0  0  0  0  0
   11.8768   20.0833   32.3909 N   0  0  0  0  0  0
   12.4214   11.8595   41.5795 O   0  0  0  0  0  0
   18.3887   11.9452   35.0210 C   0  0  0  0  0  0
   16.7553   13.6851   35.4400 C   0  0  0  0  0  0
   15.8971   12.7463   35.9939 C   0  0  0  0  0  0
   17.5306   11.0050   35.5903 C   0  0  0  0  0  0
   14.3692   15.6620   29.3171 C   0  0  0  0  0  0
   12.2890   10.7885   38.2803 C   0  0  0  0  0  0
   16.1921   14.1828   29.9535 C   0  0  0  0  0  0
   13.2698   11.2969   39.3664 C   0  0  0  0  0  0
   12.5916    8.6230   35.1908 O   0  0  0  0  0  0
   17.2450   13.8556   30.7908 C   0  0  0  0  0  0
   12.2501   13.4067   39.9081 O   0  0  0  0  0  0
   13.3347    8.9988   37.6770 H   0  0  0  0  0  0
   19.3698   13.6585   32.0507 H   0  0  0  0  0  0
   13.7591   11.3694   35.9227 H   0  0  0  0  0  0
   17.0041   16.3173   33.0466 H   0  0  0  0  0  0
   15.1709   18.1385   34.7346 H   0  0  0  0  0  0
   12.7849   17.0299   28.8533 H   0  0  0  0  0  0
   11.2031   20.3161   31.6745 H   0  0  0  0  0  0
   11.9699   20.5839   33.2718 H   0  0  0  0  0  0
   19.3531   11.6394   34.6349 H   0  0  0  0  0  0
   16.4510   14.7208   35.3884 H   0  0  0  0  0  0
   14.9477   13.0927   36.3756 H   0  0  0  0  0  0
   17.8509    9.9741   35.6480 H   0  0  0  0  0  0
   14.2643   15.1081   28.3949 H   0  0  0  0  0  0
   11.4898   10.2293   38.7719 H   0  0  0  0  0  0
   11.8049   11.6442   37.8058 H   0  0  0  0  0  0
   16.0146   13.5936   29.0658 H   0  0  0  0  0  0
   14.0956   11.8560   38.9270 H   0  0  0  0  0  0
   13.7186   10.4444   39.8767 H   0  0  0  0  0  0
   11.9572    8.1706   34.6130 H   0  0  0  0  0  0
   17.8841   13.0278   30.5270 H   0  0  0  0  0  0
   12.4630   13.5041   38.9766 H   0  0  0  0  0  0
  1 10  1  0  0  0
  1 12  1  0  0  0
  1 15  2  0  0  0
  1 16  2  0  0  0
  2  3  1  0  0  0
  2  4  2  0  0  0
  2 19  1  0  0  0
  3  8  2  0  0  0
  3  7  1  0  0  0
  4  5  1  0  0  0
  5  6  2  0  0  0
  5 26  1  0  0  0
  6  7  1  0  0  0
  7 23  2  0  0  0
  8 17  1  0  0  0
  8 20  1  0  0  0
  9 18  1  0  0  0
  9 11  1  0  0  0
  9 24  2  0  0  0
 10 22  1  0  0  0
 10 40  1  0  0  0
 11 14  1  0  0  0
 11 41  1  0  0  0
 12 28  1  0  0  0
 12 29  2  0  0  0
 13 14  1  0  0  0
 13 25  2  0  0  0
 13 36  1  0  0  0
 14 33  1  0  0  0
 14 39  1  0  0  0
 17 22  2  0  0  0
 17 42  1  0  0  0
 18 30  2  0  0  0
 18 31  1  0  0  0
 19 43  1  0  0  0
 20 34  1  0  0  0
 20 32  2  0  0  0
 21 35  1  0  0  0
 21 27  2  0  0  0
 21 38  1  0  0  0
 22 37  1  0  0  0
 23 32  1  0  0  0
 23 44  1  0  0  0
 26 45  1  0  0  0
 26 46  1  0  0  0
 28 31  2  0  0  0
 28 47  1  0  0  0
 29 30  1  0  0  0
 29 48  1  0  0  0
 30 49  1  0  0  0
 31 50  1  0  0  0
 32 51  1  0  0  0
 33 35  1  0  0  0
 33 52  1  0  0  0
 33 53  1  0  0  0
 34 37  2  0  0  0
 34 54  1  0  0  0
 35 55  1  0  0  0
 35 56  1  0  0  0
 36 57  1  0  0  0
 37 58  1  0  0  0
 38 59  1  0  0  0
M  END
> <s_m_entry_id>
40889

> <s_m_entry_name>
dock_pv.6

> <s_m_Source_Path>
/home/csk/Desktop/cluster/DUD-E-result/tysy

> <s_m_Source_File>
dock_pv.maegz

> <i_m_Source_File_Index>
6

> <chembl_id>
CHEMBL118750

> <chembl_pref_name>
None

> <i_lp_mmshare_version>
53161

> <r_lp_tautomer_probability>
1

> <s_lp_Force_Field>
OPLS_2005

> <r_lp_Energy>
22.126523

> <b_lp_Chiralities_Consistent>
1

> <s_lp_Variant>
CHEMBL1952_lig365-1

> <s_i_glide_gridfile>
glide-grid_1syn

> <i_i_glide_lignum>
733

> <i_i_glide_rotatable_bonds>
13

> <r_i_docking_score>
-9.67596145491201

> <r_i_glide_ligand_efficiency>
-0.254630564602948

> <r_i_glide_ligand_efficiency_sa>
-0.856061694976445

> <r_i_glide_ligand_efficiency_ln>
-2.08642192762687

> <r_i_glide_gscore>
-9.67596145491201

> <r_i_glide_lipo>
-3.89499220290376

> <r_i_glide_hbond>
-0.646924234226782

> <r_i_glide_metal>
0

> <r_i_glide_rewards>
-0.51520425784817

> <r_i_glide_evdw>
-61.2725067138672

> <r_i_glide_ecoul>
-14.0035562515259

> <r_i_glide_erotb>
0.710079568740453

> <r_i_glide_esite>
-0.164761555251513

> <r_i_glide_emodel>
-115.668312066618

> <r_i_glide_energy>
-75.2760629653931

> <r_i_glide_einternal>
6.63184022903442

> <i_i_glide_confnum>
41

> <i_i_glide_posenum>
46

> <r_i_glide_eff_state_penalty>
0

> <s_user_duplicate_titles>
CHEMBL1952_lig365

> <i_f3d_flags>
0

> <s_m_subgroup_title>
dock_pv

> <s_m_subgroupid>
dock_pv

> <b_m_subgroup_collapsed>
1

$$$$
CHEMBL1952_lig141
                    3D
 Schrodinger Suite 2021-1.
 50 52  0  0  1  0            999 V2000
   12.9920   18.7191   31.5823 C   0  0  0  0  0  0
   13.3004   17.7270   30.8135 N   0  0  0  0  0  0
   14.6638   18.1824   33.3109 C   0  0  0  0  0  0
   15.1382   18.4851   34.3910 O   0  0  0  0  0  0
   15.0681   17.1153   32.4021 C   0  0  0  0  0  0
   14.3413   16.9494   31.2307 C   0  0  0  0  0  0
   15.9799   15.4277   31.2300 C   0  0  0  0  0  0
   16.1074   16.1679   32.4127 C   0  0  0  0  0  0
   17.4164   16.0537   33.5910 S   0  0  0  0  0  0
   16.8126   14.3014   30.6582 C   0  0  0  0  0  0
   16.9711   14.6190   34.4937 C   0  0  0  0  0  0
   17.7641   13.4787   34.3871 C   0  0  0  0  0  0
   17.3877   12.3127   35.0464 C   0  0  0  0  0  0
   16.2087   12.2720   35.8059 C   0  0  0  0  0  0
   15.4726   13.4604   35.9871 C   0  0  0  0  0  0
   15.8508   14.6269   35.3215 C   0  0  0  0  0  0
   15.7685   10.9556   36.3913 C   0  0  0  0  0  0
   16.5914   10.1339   36.7915 O   0  0  0  0  0  0
   13.7619    9.5248   36.8462 C   0  0  1  0  0  0
   12.7280    9.8930   37.9558 C   0  0  0  0  0  0
   13.2577    8.7204   35.6211 C   0  0  0  0  0  0
   14.0019    8.2269   34.7972 O   0  0  0  0  0  0
   11.7280   11.0365   37.6387 C   0  0  0  0  0  0
   10.8808   11.4418   38.8489 C   0  0  0  0  0  0
   11.0466   11.0161   39.9912 O   0  0  0  0  0  0
   14.3630   13.4941   36.7644 F   0  0  0  0  0  0
   13.6286   18.9035   32.7906 N   0  0  0  0  0  0
   12.0158   19.6612   31.2212 N   0  0  0  0  0  0
   14.9014   15.9194   30.5315 N   0  0  0  0  0  0
   14.4456   10.7361   36.3895 N   0  0  0  0  0  0
   11.9002    8.6279   35.5911 O   0  0  0  0  0  0
    9.9267   12.3600   38.5255 O   0  0  0  0  0  0
   17.3212   13.7336   31.4380 H   0  0  0  0  0  0
   16.2167   13.5848   30.0923 H   0  0  0  0  0  0
   17.5858   14.6795   29.9909 H   0  0  0  0  0  0
   18.6482   13.4799   33.7660 H   0  0  0  0  0  0
   17.9968   11.4282   34.9182 H   0  0  0  0  0  0
   15.2648   15.5267   35.4360 H   0  0  0  0  0  0
   14.4868    8.8588   37.3173 H   0  0  0  0  0  0
   13.2917   10.1629   38.8509 H   0  0  0  0  0  0
   12.1723    8.9988   38.2428 H   0  0  0  0  0  0
   11.0635   10.7406   36.8260 H   0  0  0  0  0  0
   12.2612   11.9276   37.3081 H   0  0  0  0  0  0
   13.3590   19.6837   33.3767 H   0  0  0  0  0  0
   11.3486   19.4278   30.4941 H   0  0  0  0  0  0
   11.5850   20.2165   31.9420 H   0  0  0  0  0  0
   14.5922   15.6002   29.6260 H   0  0  0  0  0  0
   13.8515   11.4622   36.0201 H   0  0  0  0  0  0
   11.6136    8.0613   34.8565 H   0  0  0  0  0  0
    9.9257   12.5944   37.5960 H   0  0  0  0  0  0
  1  2  2  0  0  0
  1 28  1  0  0  0
  1 27  1  0  0  0
  2  6  1  0  0  0
  3  5  1  0  0  0
  3  4  2  0  0  0
  3 27  1  0  0  0
  5  6  2  0  0  0
  5  8  1  0  0  0
  6 29  1  0  0  0
  7  8  2  0  0  0
  7 10  1  0  0  0
  7 29  1  0  0  0
  8  9  1  0  0  0
  9 11  1  0  0  0
 10 33  1  0  0  0
 10 34  1  0  0  0
 10 35  1  0  0  0
 11 12  2  0  0  0
 11 16  1  0  0  0
 12 13  1  0  0  0
 12 36  1  0  0  0
 13 14  2  0  0  0
 13 37  1  0  0  0
 14 15  1  0  0  0
 14 17  1  0  0  0
 15 16  2  0  0  0
 15 26  1  0  0  0
 16 38  1  0  0  0
 17 18  2  0  0  0
 17 30  1  0  0  0
 19 20  1  0  0  0
 19 21  1  0  0  0
 19 30  1  0  0  0
 19 39  1  0  0  0
 20 23  1  0  0  0
 20 40  1  0  0  0
 20 41  1  0  0  0
 21 22  2  0  0  0
 21 31  1  0  0  0
 23 24  1  0  0  0
 23 42  1  0  0  0
 23 43  1  0  0  0
 24 25  2  0  0  0
 24 32  1  0  0  0
 27 44  1  0  0  0
 28 45  1  0  0  0
 28 46  1  0  0  0
 29 47  1  0  0  0
 30 48  1  0  0  0
 31 49  1  0  0  0
 32 50  1  0  0  0
M  END
> <s_m_entry_id>
40890

> <s_m_entry_name>
dock_pv.7

> <s_m_Source_Path>
/home/csk/Desktop/cluster/DUD-E-result/tysy

> <s_m_Source_File>
dock_pv.maegz

> <i_m_Source_File_Index>
7

> <chembl_id>
CHEMBL388340

> <chembl_pref_name>
None

> <i_lp_mmshare_version>
53161

> <r_lp_tautomer_probability>
1

> <s_lp_Force_Field>
OPLS_2005

> <r_lp_Energy>
17.598793

> <b_lp_Chiralities_Consistent>
1

> <s_lp_Variant>
CHEMBL1952_lig141-1

> <s_i_glide_gridfile>
glide-grid_1syn

> <i_i_glide_lignum>
318

> <i_i_glide_rotatable_bonds>
11

> <r_i_docking_score>
-9.66438601609363

> <r_i_glide_ligand_efficiency>
-0.302012063002926

> <r_i_glide_ligand_efficiency_sa>
-0.958828531928179

> <r_i_glide_ligand_efficiency_ln>
-2.16411947021647

> <r_i_glide_gscore>
-9.66438601609363

> <r_i_glide_lipo>
-3.02195460484331

> <r_i_glide_hbond>
-0.829174389543714

> <r_i_glide_metal>
0

> <r_i_glide_rewards>
-1.62821029342584

> <r_i_glide_evdw>
-50.0153160095215

> <r_i_glide_ecoul>
-16.8197002410889

> <r_i_glide_erotb>
0.84443555244459

> <r_i_glide_esite>
-0.00576144408594084

> <r_i_glide_emodel>
-106.619892770213

> <r_i_glide_energy>
-66.8350162506104

> <r_i_glide_einternal>
4.32341146469116

> <i_i_glide_confnum>
109

> <i_i_glide_posenum>
205

> <r_i_glide_eff_state_penalty>
0

> <s_user_duplicate_titles>
CHEMBL1952_lig141,373997

> <i_f3d_flags>
0

> <s_m_subgroup_title>
dock_pv

> <s_m_subgroupid>
dock_pv

> <b_m_subgroup_collapsed>
1

$$$$
CHEMBL1952_lig364
                    3D
 Schrodinger Suite 2021-1.
 61 64  0  0  1  0            999 V2000
   18.1988   15.0189   34.0909 S   0  0  0  0  0  0
   14.2595   17.6289   31.7450 C   0  0  0  0  0  0
   13.9090   18.3305   32.9831 C   0  0  0  0  0  0
   17.0587   15.2035   32.6991 C   0  0  0  0  0  0
   13.6198   18.0364   30.6062 C   0  0  0  0  0  0
   13.1555   19.4280   32.7910 N   0  0  0  0  0  0
   15.2524   16.5153   31.6970 C   0  0  0  0  0  0
   12.7132   19.0564   30.5842 N   0  0  0  0  0  0
   12.5660   19.7827   31.6262 C   0  0  0  0  0  0
   16.1933   16.2974   32.7199 C   0  0  0  0  0  0
   14.6815    9.7928   37.0791 C   0  0  0  0  0  0
   15.2798   15.6824   30.5620 C   0  0  0  0  0  0
   17.1872   14.6622   35.4978 N   0  0  0  0  0  0
   16.9920   14.3331   31.6052 C   0  0  0  0  0  0
   15.2174    8.6283   36.6621 N   0  0  0  0  0  0
   13.3110    7.1689   36.0119 C   0  0  0  0  0  0
   16.1869   14.6280   30.5140 C   0  0  0  0  0  0
   19.1165   13.8990   33.8812 O   0  0  0  0  0  0
   18.7426   16.3496   34.3634 O   0  0  0  0  0  0
   14.6316    7.2851   36.8172 C   0  0  2  0  0  0
   14.2229   18.0071   34.1248 O   0  0  0  0  0  0
   15.3672   11.0549   36.6104 C   0  0  0  0  0  0
   13.8983   17.3703   29.2628 C   0  0  0  0  0  0
   15.3900    4.5242   38.6887 C   0  0  0  0  0  0
   13.6655    9.8531   37.7742 O   0  0  0  0  0  0
   14.2512   15.8800   29.4533 C   0  0  0  0  0  0
   12.3261    6.5834   36.4040 O   0  0  0  0  0  0
   11.7920   20.9452   31.5910 N   0  0  0  0  0  0
   16.1920    4.5046   39.6192 O   0  0  0  0  0  0
   14.4996    6.9097   38.3284 C   0  0  0  0  0  0
   16.5918   13.4336   35.7863 C   0  0  0  0  0  0
   16.6273   11.0299   35.9910 C   0  0  0  0  0  0
   14.7270   12.2878   36.7938 C   0  0  0  0  0  0
   17.7920   12.6280   31.5910 Br  0  0  0  0  0  0
   14.1658    5.4340   38.6608 C   0  0  0  0  0  0
   13.3920    7.8280   34.8163 O   0  0  0  0  0  0
   15.4845    3.7223   37.5910 O   0  0  0  0  0  0
   17.2349   12.2116   35.5839 C   0  0  0  0  0  0
   15.3377   13.4678   36.3893 C   0  0  0  0  0  0
   15.3361    6.5938   36.3546 H   0  0  0  0  0  0
   16.2598   16.9665   33.5626 H   0  0  0  0  0  0
   16.8222   15.4658   35.9850 H   0  0  0  0  0  0
   15.9859    8.6831   36.0133 H   0  0  0  0  0  0
   16.1629   13.9428   29.6780 H   0  0  0  0  0  0
   12.9920   19.9619   33.6482 H   0  0  0  0  0  0
   13.0444   17.4749   28.5918 H   0  0  0  0  0  0
   14.7235   17.9027   28.7910 H   0  0  0  0  0  0
   14.5920   15.4451   28.5120 H   0  0  0  0  0  0
   13.3528   15.3328   29.7433 H   0  0  0  0  0  0
   11.1656   21.0824   30.8109 H   0  0  0  0  0  0
   11.4901   21.3791   32.4486 H   0  0  0  0  0  0
   13.7360    7.5317   38.7974 H   0  0  0  0  0  0
   15.4231    7.1817   38.8435 H   0  0  0  0  0  0
   17.1720   10.1112   35.8325 H   0  0  0  0  0  0
   13.7544   12.3458   37.2626 H   0  0  0  0  0  0
   13.7465    5.4023   39.6670 H   0  0  0  0  0  0
   13.3920    5.0180   38.0171 H   0  0  0  0  0  0
   12.5117    7.7811   34.4101 H   0  0  0  0  0  0
   14.7715    3.8280   36.9493 H   0  0  0  0  0  0
   18.2209   12.1541   35.1519 H   0  0  0  0  0  0
   14.8386   14.4108   36.5632 H   0  0  0  0  0  0
  1  4  1  0  0  0
  1 13  1  0  0  0
  1 18  2  0  0  0
  1 19  2  0  0  0
  2  3  1  0  0  0
  2  7  1  0  0  0
  2  5  2  0  0  0
  3  6  1  0  0  0
  3 21  2  0  0  0
  4 10  2  0  0  0
  4 14  1  0  0  0
  5  8  1  0  0  0
  5 23  1  0  0  0
  6  9  1  0  0  0
  6 45  1  0  0  0
  7 10  1  0  0  0
  7 12  2  0  0  0
  8  9  2  0  0  0
  9 28  1  0  0  0
 10 41  1  0  0  0
 11 22  1  0  0  0
 11 15  1  0  0  0
 11 25  2  0  0  0
 12 17  1  0  0  0
 12 26  1  0  0  0
 13 31  1  0  0  0
 13 42  1  0  0  0
 14 17  2  0  0  0
 14 34  1  0  0  0
 15 20  1  0  0  0
 15 43  1  0  0  0
 16 20  1  0  0  0
 16 27  2  0  0  0
 16 36  1  0  0  0
 17 44  1  0  0  0
 20 30  1  0  0  0
 20 40  1  0  0  0
 22 33  2  0  0  0
 22 32  1  0  0  0
 23 26  1  0  0  0
 23 46  1  0  0  0
 23 47  1  0  0  0
 24 35  1  0  0  0
 24 29  2  0  0  0
 24 37  1  0  0  0
 26 48  1  0  0  0
 26 49  1  0  0  0
 28 50  1  0  0  0
 28 51  1  0  0  0
 30 35  1  0  0  0
 30 52  1  0  0  0
 30 53  1  0  0  0
 31 38  1  0  0  0
 31 39  2  0  0  0
 32 38  2  0  0  0
 32 54  1  0  0  0
 33 39  1  0  0  0
 33 55  1  0  0  0
 35 56  1  0  0  0
 35 57  1  0  0  0
 36 58  1  0  0  0
 37 59  1  0  0  0
 38 60  1  0  0  0
 39 61  1  0  0  0
M  END
> <s_m_entry_id>
40891

> <s_m_entry_name>
dock_pv.8

> <s_m_Source_Path>
/home/csk/Desktop/cluster/DUD-E-result/tysy

> <s_m_Source_File>
dock_pv.maegz

> <i_m_Source_File_Index>
8

> <chembl_id>
CHEMBL117611

> <chembl_pref_name>
None

> <i_lp_mmshare_version>
53161

> <r_lp_tautomer_probability>
0.878315377147829

> <s_lp_Force_Field>
OPLS_2005

> <r_lp_Energy>
26.673285

> <b_lp_Chiralities_Consistent>
1

> <s_lp_Variant>
CHEMBL1952_lig364-1

> <s_i_glide_gridfile>
glide-grid_1syn

> <i_i_glide_lignum>
730

> <i_i_glide_rotatable_bonds>
12

> <r_i_docking_score>
-9.62838617067288

> <r_i_glide_ligand_efficiency>
-0.24688169668392

> <r_i_glide_ligand_efficiency_sa>
-0.83722803384285

> <r_i_glide_ligand_efficiency_ln>
-2.06459931298723

> <r_i_glide_gscore>
-9.62838617067288

> <r_i_glide_lipo>
-4.09916493876375

> <r_i_glide_hbond>
-0.248964985911003

> <r_i_glide_metal>
0

> <r_i_glide_rewards>
-0.545338969645394

> <r_i_glide_evdw>
-65.1650009155273

> <r_i_glide_ecoul>
-11.6411199569702

> <r_i_glide_erotb>
0.416105006112698

> <r_i_glide_esite>
-0.146604243143525

> <r_i_glide_emodel>
-110.67471617362

> <r_i_glide_energy>
-76.8061208724976

> <r_i_glide_einternal>
8.66494369506836

> <i_i_glide_confnum>
219

> <i_i_glide_posenum>
288

> <r_i_glide_eff_state_penalty>
0

> <s_user_duplicate_titles>
CHEMBL1952_lig364,CHEMBL1952_lig364,CHEMBL1952_lig364

> <i_f3d_flags>
0

> <s_m_subgroup_title>
dock_pv

> <s_m_subgroupid>
dock_pv

> <b_m_subgroup_collapsed>
1

$$$$
CHEMBL1952_lig275
                    3D
 Schrodinger Suite 2021-1.
 58 62  0  0  1  0            999 V2000
   13.3563   19.0280   33.1909 N   0  0  0  0  0  0
   12.5918   19.3275   32.0916 C   0  0  0  0  0  0
   12.7042   18.6496   31.0094 N   0  0  0  0  0  0
   14.3661   18.1225   33.2973 C   0  0  0  0  0  0
   14.5070   17.3410   32.0553 C   0  0  0  0  0  0
   13.6441   17.6647   31.0020 C   0  0  0  0  0  0
   13.8093   16.6981   29.5909 S   0  0  0  0  0  0
   15.4137   16.2734   31.6900 C   0  0  0  0  0  0
   15.1135   15.8256   30.3516 C   0  0  0  0  0  0
   15.8061   14.7891   29.7284 C   0  0  0  0  0  0
   16.8373   14.1989   30.4292 C   0  0  0  0  0  0
   17.1843   14.6133   31.6967 C   0  0  0  0  0  0
   16.4923   15.6279   32.3743 C   0  0  0  0  0  0
   14.9922   18.0940   34.3471 O   0  0  0  0  0  0
   16.9571   16.0018   33.7855 C   0  0  0  0  0  0
   17.8164   15.0097   34.4381 N   0  0  0  0  0  0
   17.2460   13.8817   35.0519 C   0  0  0  0  0  0
   16.0020   13.9203   35.7029 C   0  0  0  0  0  0
   17.4320   11.5180   35.5912 C   0  0  0  0  0  0
   17.9561   12.6752   35.0078 C   0  0  0  0  0  0
   16.1916   11.5851   36.2288 C   0  0  0  0  0  0
   15.4812   12.7650   36.2775 C   0  0  0  0  0  0
   14.1991   12.5337   37.0058 C   0  0  0  0  0  0
   14.2846   11.1221   37.3727 N   0  0  0  0  0  0
   15.4409   10.5289   36.9718 C   0  0  0  0  0  0
   11.6076   20.4703   32.1887 C   0  0  0  0  0  0
   15.7916    9.3712   37.2043 O   0  0  0  0  0  0
   13.1861   10.4663   38.1208 C   0  0  1  0  0  0
   12.6616    9.1707   37.4305 C   0  0  0  0  0  0
   13.5083   10.2224   39.6133 C   0  0  0  0  0  0
   12.4185    9.2205   35.9014 C   0  0  0  0  0  0
   11.3640   10.2275   35.4305 C   0  0  0  0  0  0
   14.6057    9.4213   39.7497 O   0  0  0  0  0  0
   12.8515   10.6921   40.5190 O   0  0  0  0  0  0
   10.7443    9.8278   34.2831 O   0  0  0  0  0  0
   11.1244   11.2946   35.9899 O   0  0  0  0  0  0
   13.2315   19.6194   34.0136 H   0  0  0  0  0  0
   15.5538   14.4547   28.7311 H   0  0  0  0  0  0
   17.3917   13.3865   29.9947 H   0  0  0  0  0  0
   18.0180   14.0963   32.1495 H   0  0  0  0  0  0
   16.0765   16.1272   34.3965 H   0  0  0  0  0  0
   17.4659   16.9665   33.7596 H   0  0  0  0  0  0
   18.7173   14.8672   34.0043 H   0  0  0  0  0  0
   15.4385   14.8353   35.7881 H   0  0  0  0  0  0
   17.9987   10.5985   35.5528 H   0  0  0  0  0  0
   18.9164   12.6241   34.5132 H   0  0  0  0  0  0
   13.3281   12.7201   36.3764 H   0  0  0  0  0  0
   14.1136   13.1586   37.8954 H   0  0  0  0  0  0
   10.5995   20.1164   31.9919 H   0  0  0  0  0  0
   11.5999   20.9340   33.1752 H   0  0  0  0  0  0
   11.8376   21.2445   31.4568 H   0  0  0  0  0  0
   12.3584   11.1764   38.1247 H   0  0  0  0  0  0
   11.7288    8.8793   37.9157 H   0  0  0  0  0  0
   13.3477    8.3452   37.6235 H   0  0  0  0  0  0
   12.1047    8.2246   35.5902 H   0  0  0  0  0  0
   13.3447    9.4221   35.3643 H   0  0  0  0  0  0
   14.9931    9.2227   38.8889 H   0  0  0  0  0  0
   10.9922    8.9413   33.9908 H   0  0  0  0  0  0
  1  2  1  0  0  0
  1  4  1  0  0  0
  1 37  1  0  0  0
  2  3  2  0  0  0
  2 26  1  0  0  0
  3  6  1  0  0  0
  4  5  1  0  0  0
  4 14  2  0  0  0
  5  6  2  0  0  0
  5  8  1  0  0  0
  6  7  1  0  0  0
  7  9  1  0  0  0
  8  9  2  0  0  0
  8 13  1  0  0  0
  9 10  1  0  0  0
 10 11  2  0  0  0
 10 38  1  0  0  0
 11 12  1  0  0  0
 11 39  1  0  0  0
 12 13  2  0  0  0
 12 40  1  0  0  0
 13 15  1  0  0  0
 15 16  1  0  0  0
 15 41  1  0  0  0
 15 42  1  0  0  0
 16 17  1  0  0  0
 16 43  1  0  0  0
 17 18  2  0  0  0
 17 20  1  0  0  0
 18 22  1  0  0  0
 18 44  1  0  0  0
 19 21  1  0  0  0
 19 20  2  0  0  0
 19 45  1  0  0  0
 20 46  1  0  0  0
 21 22  2  0  0  0
 21 25  1  0  0  0
 22 23  1  0  0  0
 23 24  1  0  0  0
 23 47  1  0  0  0
 23 48  1  0  0  0
 24 25  1  0  0  0
 24 28  1  0  0  0
 25 27  2  0  0  0
 26 49  1  0  0  0
 26 50  1  0  0  0
 26 51  1  0  0  0
 28 29  1  0  0  0
 28 30  1  0  0  0
 28 52  1  0  0  0
 29 31  1  0  0  0
 29 53  1  0  0  0
 29 54  1  0  0  0
 30 33  1  0  0  0
 30 34  2  0  0  0
 31 32  1  0  0  0
 31 55  1  0  0  0
 31 56  1  0  0  0
 32 35  1  0  0  0
 32 36  2  0  0  0
 33 57  1  0  0  0
 35 58  1  0  0  0
M  END
> <s_m_entry_id>
40892

> <s_m_entry_name>
dock_pv.9

> <s_m_Source_Path>
/home/csk/Desktop/cluster/DUD-E-result/tysy

> <s_m_Source_File>
dock_pv.maegz

> <i_m_Source_File_Index>
9

> <chembl_id>
CHEMBL1818549

> <chembl_pref_name>
None

> <i_lp_mmshare_version>
53161

> <r_lp_tautomer_probability>
1

> <s_lp_Force_Field>
OPLS_2005

> <r_lp_Energy>
52.727423

> <b_lp_Chiralities_Consistent>
1

> <s_lp_Variant>
CHEMBL1952_lig275-1

> <s_i_glide_gridfile>
glide-grid_1syn

> <i_i_glide_lignum>
545

> <i_i_glide_rotatable_bonds>
10

> <r_i_docking_score>
-9.5992841750513

> <r_i_glide_ligand_efficiency>
-0.266646782640314

> <r_i_glide_ligand_efficiency_sa>
-0.880448276378434

> <r_i_glide_ligand_efficiency_ln>
-2.09430446430852

> <r_i_glide_gscore>
-9.5992841750513

> <r_i_glide_lipo>
-4.38596245956774

> <r_i_glide_hbond>
-0.402422697403217

> <r_i_glide_metal>
0

> <r_i_glide_rewards>
-0.776277492627507

> <r_i_glide_evdw>
-58.9501609802246

> <r_i_glide_ecoul>
-11.302806854248

> <r_i_glide_erotb>
0.63796439482317

> <r_i_glide_esite>
-0.0296568431275641

> <r_i_glide_emodel>
-106.430159858013

> <r_i_glide_energy>
-70.2529678344727

> <r_i_glide_einternal>
10.3994083404541

> <i_i_glide_confnum>
58

> <i_i_glide_posenum>
381

> <r_i_glide_eff_state_penalty>
0

> <s_user_duplicate_titles>
CHEMBL1952_lig275

> <i_f3d_flags>
0

> <s_m_subgroup_title>
dock_pv

> <s_m_subgroupid>
dock_pv

> <b_m_subgroup_collapsed>
1

$$$$
CHEMBL1952_lig152
                    3D
 Schrodinger Suite 2021-1.
 52 54  0  0  1  0            999 V2000
   16.0073   16.2239   32.1922 N   0  0  0  0  0  0
   13.5842   18.8794   32.9185 N   0  0  0  0  0  0
   12.8551   18.7993   31.7543 C   0  0  0  0  0  0
   13.1335   17.9028   30.8661 N   0  0  0  0  0  0
   14.6434   18.1091   33.3060 C   0  0  0  0  0  0
   11.7935   19.7112   31.5909 N   0  0  0  0  0  0
   15.1744   18.2836   34.3910 O   0  0  0  0  0  0
   14.9769   17.1456   32.2662 C   0  0  0  0  0  0
   14.2008   17.0797   31.1107 C   0  0  0  0  0  0
   14.7541   16.0669   30.3313 C   0  0  0  0  0  0
   15.8608   15.5399   30.9922 C   0  0  0  0  0  0
   16.8064   14.4349   30.5635 C   0  0  0  0  0  0
   17.0995   16.0365   33.1617 C   0  0  0  0  0  0
   16.9918   14.7832   34.0197 C   0  0  0  0  0  0
   17.9433   13.7703   33.8828 C   0  0  0  0  0  0
   16.6767   12.3635   35.3949 C   0  0  0  0  0  0
   15.7731   13.4194   35.5936 C   0  0  0  0  0  0
   15.9383   14.6292   34.9205 C   0  0  0  0  0  0
   16.4488   10.9901   35.9908 C   0  0  0  0  0  0
   15.1659   10.6169   36.1741 N   0  0  0  0  0  0
   17.3956   10.2311   36.2041 O   0  0  0  0  0  0
   17.7932   12.5749   34.5774 C   0  0  0  0  0  0
   14.7194    9.2692   36.5661 C   0  0  2  0  0  0
   13.9487    8.6339   35.3863 C   0  0  0  0  0  0
   12.5986    8.6231   35.5868 O   0  0  0  0  0  0
   14.5067    8.2272   34.3916 O   0  0  0  0  0  0
   13.9877    9.3246   37.9365 C   0  0  0  0  0  0
   13.4776    7.9778   38.5086 C   0  0  0  0  0  0
   14.5786    6.9316   38.6728 C   0  0  0  0  0  0
   14.5794    5.9904   37.6829 O   0  0  0  0  0  0
   15.3917    6.9542   39.5909 O   0  0  0  0  0  0
   13.3264   19.5858   33.6000 H   0  0  0  0  0  0
   11.1133   19.5962   30.8477 H   0  0  0  0  0  0
   11.4870   20.3011   32.3504 H   0  0  0  0  0  0
   14.3931   15.7543   29.3634 H   0  0  0  0  0  0
   16.5477   14.0431   29.5790 H   0  0  0  0  0  0
   17.8401   14.7782   30.5053 H   0  0  0  0  0  0
   16.7856   13.5890   31.2464 H   0  0  0  0  0  0
   17.1856   16.9130   33.8006 H   0  0  0  0  0  0
   18.0313   16.0106   32.5991 H   0  0  0  0  0  0
   18.7846   13.8818   33.2097 H   0  0  0  0  0  0
   14.9218   13.3080   36.2504 H   0  0  0  0  0  0
   15.2155   15.4209   35.0540 H   0  0  0  0  0  0
   14.4350   11.2696   35.9314 H   0  0  0  0  0  0
   18.5221   11.7933   34.4182 H   0  0  0  0  0  0
   15.5938    8.6315   36.6986 H   0  0  0  0  0  0
   12.1319    8.2110   34.8489 H   0  0  0  0  0  0
   13.1478   10.0171   37.8735 H   0  0  0  0  0  0
   14.6617    9.7706   38.6722 H   0  0  0  0  0  0
   12.6593    7.5702   37.9146 H   0  0  0  0  0  0
   13.0529    8.1582   39.4955 H   0  0  0  0  0  0
   13.8688    6.0937   37.0459 H   0  0  0  0  0  0
  1 11  1  0  0  0
  1  8  1  0  0  0
  1 13  1  0  0  0
  2  5  1  0  0  0
  2  3  1  0  0  0
  2 32  1  0  0  0
  3  4  2  0  0  0
  3  6  1  0  0  0
  4  9  1  0  0  0
  5  8  1  0  0  0
  5  7  2  0  0  0
  6 33  1  0  0  0
  6 34  1  0  0  0
  8  9  2  0  0  0
  9 10  1  0  0  0
 10 11  2  0  0  0
 10 35  1  0  0  0
 11 12  1  0  0  0
 12 36  1  0  0  0
 12 37  1  0  0  0
 12 38  1  0  0  0
 13 14  1  0  0  0
 13 39  1  0  0  0
 13 40  1  0  0  0
 14 15  2  0  0  0
 14 18  1  0  0  0
 15 22  1  0  0  0
 15 41  1  0  0  0
 16 22  2  0  0  0
 16 17  1  0  0  0
 16 19  1  0  0  0
 17 18  2  0  0  0
 17 42  1  0  0  0
 18 43  1  0  0  0
 19 20  1  0  0  0
 19 21  2  0  0  0
 20 23  1  0  0  0
 20 44  1  0  0  0
 22 45  1  0  0  0
 23 24  1  0  0  0
 23 27  1  0  0  0
 23 46  1  0  0  0
 24 25  1  0  0  0
 24 26  2  0  0  0
 25 47  1  0  0  0
 27 28  1  0  0  0
 27 48  1  0  0  0
 27 49  1  0  0  0
 28 29  1  0  0  0
 28 50  1  0  0  0
 28 51  1  0  0  0
 29 30  1  0  0  0
 29 31  2  0  0  0
 30 52  1  0  0  0
M  END
> <s_m_entry_id>
40893

> <s_m_entry_name>
dock_pv.10

> <s_m_Source_Path>
/home/csk/Desktop/cluster/DUD-E-result/tysy

> <s_m_Source_File>
dock_pv.maegz

> <i_m_Source_File_Index>
10

> <chembl_id>
CHEMBL252132

> <chembl_pref_name>
None

> <i_lp_mmshare_version>
53161

> <r_lp_tautomer_probability>
1

> <s_lp_Force_Field>
OPLS_2005

> <r_lp_Energy>
17.982328

> <b_lp_Chiralities_Consistent>
1

> <s_lp_Variant>
CHEMBL1952_lig152-1

> <s_i_glide_gridfile>
glide-grid_1syn

> <i_i_glide_lignum>
329

> <i_i_glide_rotatable_bonds>
11

> <r_i_docking_score>
-9.5973901258902

> <r_i_glide_ligand_efficiency>
-0.309593229867426

> <r_i_glide_ligand_efficiency_sa>
-0.972550181303651

> <r_i_glide_ligand_efficiency_ln>
-2.16450559807256

> <r_i_glide_gscore>
-9.5973901258902

> <r_i_glide_lipo>
-3.05548812690774

> <r_i_glide_hbond>
-0.99866713852982

> <r_i_glide_metal>
0

> <r_i_glide_rewards>
-1.94437519414011

> <r_i_glide_evdw>
-50.5428199768066

> <r_i_glide_ecoul>
-13.6659250259399

> <r_i_glide_erotb>
0.978170086418791

> <r_i_glide_esite>
0

> <r_i_glide_emodel>
-97.7427729921899

> <r_i_glide_energy>
-64.2087450027466

> <r_i_glide_einternal>
6.88933801651001

> <i_i_glide_confnum>
66

> <i_i_glide_posenum>
94

> <r_i_glide_eff_state_penalty>
0

> <s_user_duplicate_titles>
CHEMBL1952_lig152,418682

> <i_f3d_flags>
0

> <s_m_subgroup_title>
dock_pv

> <s_m_subgroupid>
dock_pv

> <b_m_subgroup_collapsed>
1

$$$$
CHEMBL1952_lig339
                    3D
 Schrodinger Suite 2021-1.
 64 68  0  0  1  0            999 V2000
   13.2359   12.0201   38.3843 N   0  0  0  0  0  0
   13.8350   10.8755   37.9653 C   0  0  0  0  0  0
   14.4129   17.2657   31.8939 C   0  0  0  0  0  0
   13.8779   18.0465   32.9937 C   0  0  0  0  0  0
   12.9800   19.0294   32.7889 N   0  0  0  0  0  0
   12.9683   18.6091   30.4251 N   0  0  0  0  0  0
   13.8521   17.5917   30.6101 C   0  0  0  0  0  0
   15.4269   16.2495   31.9575 C   0  0  0  0  0  0
   14.9245   11.3170   37.0470 C   0  0  0  0  0  0
   14.9369   12.6927   36.9584 C   0  0  0  0  0  0
   13.8387   13.2377   37.8186 C   0  0  0  0  0  0
   12.6081   19.2939   31.5263 C   0  0  0  0  0  0
   12.1202   11.9676   39.3605 C   0  0  2  0  0  0
   11.0143   13.0286   39.1546 C   0  0  0  0  0  0
   15.9011   13.3344   36.1782 C   0  0  0  0  0  0
   16.8878   12.5878   35.5055 C   0  0  0  0  0  0
   17.9290   13.2157   34.7697 N   0  0  0  0  0  0
   15.8493   10.5442   36.3552 C   0  0  0  0  0  0
   12.6476   11.8714   40.8200 C   0  0  0  0  0  0
   16.1432   15.8989   33.1490 C   0  0  0  0  0  0
   13.5472    9.7225   38.2850 O   0  0  0  0  0  0
   14.2606   17.8260   34.2818 O   0  0  0  0  0  0
   15.7917   15.5523   30.7575 C   0  0  0  0  0  0
   13.7921   12.9843   42.8085 C   0  0  0  0  0  0
   17.9223   14.6463   34.4364 C   0  0  0  0  0  0
   14.2221   16.8716   29.4609 C   0  0  0  0  0  0
   17.1535   14.9377   33.1487 C   0  0  0  0  0  0
   16.8259   11.1832   35.5967 C   0  0  0  0  0  0
   10.4992   13.6484   40.0626 O   0  0  0  0  0  0
   13.3913   13.8369   43.5946 O   0  0  0  0  0  0
   15.1593   15.8575   29.5369 C   0  0  0  0  0  0
   13.5382   13.0382   41.3001 C   0  0  0  0  0  0
   16.8058   14.5689   30.7877 C   0  0  0  0  0  0
   10.6856   13.1230   37.8337 O   0  0  0  0  0  0
   17.4813   14.2842   31.9612 C   0  0  0  0  0  0
   14.4675   11.8664   43.1910 O   0  0  0  0  0  0
   11.7922   20.5532   31.3353 C   0  0  0  0  0  0
   18.9930   12.4056   34.1748 C   0  0  0  0  0  0
   11.5798   11.0331   39.1914 H   0  0  0  0  0  0
   13.1157   13.8059   37.2346 H   0  0  0  0  0  0
   14.2198   13.8896   38.6054 H   0  0  0  0  0  0
   15.8895   14.4122   36.1382 H   0  0  0  0  0  0
   15.8349    9.4642   36.4094 H   0  0  0  0  0  0
   13.1927   10.9316   40.9360 H   0  0  0  0  0  0
   11.7947   11.7788   41.4909 H   0  0  0  0  0  0
   15.9533   16.3828   34.0873 H   0  0  0  0  0  0
   13.8134   18.4885   34.8182 H   0  0  0  0  0  0
   17.5504   15.2504   35.2614 H   0  0  0  0  0  0
   18.9465   14.9884   34.2850 H   0  0  0  0  0  0
   13.7804   17.1249   28.5081 H   0  0  0  0  0  0
   17.5439   10.5597   35.0922 H   0  0  0  0  0  0
   15.4391   15.3193   28.6426 H   0  0  0  0  0  0
   13.0668   13.9951   41.0706 H   0  0  0  0  0  0
   14.4951   13.0280   40.7847 H   0  0  0  0  0  0
   17.0735   14.0461   29.8820 H   0  0  0  0  0  0
   11.2029   12.5201   37.2922 H   0  0  0  0  0  0
   18.2716   13.5496   31.9302 H   0  0  0  0  0  0
   14.6294   11.8374   44.1486 H   0  0  0  0  0  0
   11.4351   20.6637   30.3092 H   0  0  0  0  0  0
   10.9375   20.5333   32.0068 H   0  0  0  0  0  0
   12.3886   21.4294   31.5917 H   0  0  0  0  0  0
   18.5892   11.7466   33.4051 H   0  0  0  0  0  0
   19.7603   13.0279   33.7087 H   0  0  0  0  0  0
   19.4839   11.7800   34.9226 H   0  0  0  0  0  0
  1  2  1  0  0  0
  1 11  1  0  0  0
  1 13  1  0  0  0
  2  9  1  0  0  0
  2 21  2  0  0  0
  3  8  2  0  0  0
  3  4  1  0  0  0
  3  7  1  0  0  0
  4  5  2  0  0  0
  4 22  1  0  0  0
  5 12  1  0  0  0
  6  7  1  0  0  0
  6 12  2  0  0  0
  7 26  2  0  0  0
  8 20  1  0  0  0
  8 23  1  0  0  0
  9 18  1  0  0  0
  9 10  2  0  0  0
 10 11  1  0  0  0
 10 15  1  0  0  0
 11 40  1  0  0  0
 11 41  1  0  0  0
 12 37  1  0  0  0
 13 14  1  0  0  0
 13 19  1  0  0  0
 13 39  1  0  0  0
 14 29  2  0  0  0
 14 34  1  0  0  0
 15 16  2  0  0  0
 15 42  1  0  0  0
 16 17  1  0  0  0
 16 28  1  0  0  0
 17 25  1  0  0  0
 17 38  1  0  0  0
 18 28  2  0  0  0
 18 43  1  0  0  0
 19 32  1  0  0  0
 19 44  1  0  0  0
 19 45  1  0  0  0
 20 27  2  0  0  0
 20 46  1  0  0  0
 22 47  1  0  0  0
 23 33  1  0  0  0
 23 31  2  0  0  0
 24 32  1  0  0  0
 24 30  2  0  0  0
 24 36  1  0  0  0
 25 27  1  0  0  0
 25 48  1  0  0  0
 25 49  1  0  0  0
 26 31  1  0  0  0
 26 50  1  0  0  0
 27 35  1  0  0  0
 28 51  1  0  0  0
 31 52  1  0  0  0
 32 53  1  0  0  0
 32 54  1  0  0  0
 33 35  2  0  0  0
 33 55  1  0  0  0
 34 56  1  0  0  0
 35 57  1  0  0  0
 36 58  1  0  0  0
 37 59  1  0  0  0
 37 60  1  0  0  0
 37 61  1  0  0  0
 38 62  1  0  0  0
 38 63  1  0  0  0
 38 64  1  0  0  0
M  END
> <s_m_entry_id>
40894

> <s_m_entry_name>
dock_pv.11

> <s_m_Source_Path>
/home/csk/Desktop/cluster/DUD-E-result/tysy

> <s_m_Source_File>
dock_pv.maegz

> <i_m_Source_File_Index>
11

> <chembl_id>
CHEMBL355616

> <chembl_pref_name>
None

> <i_lp_mmshare_version>
53161

> <r_lp_tautomer_probability>
1

> <s_lp_Force_Field>
OPLS_2005

> <r_lp_Energy>
42.285797

> <b_lp_Chiralities_Consistent>
1

> <s_lp_Variant>
CHEMBL1952_lig339-1

> <s_i_glide_gridfile>
glide-grid_1syn

> <i_i_glide_lignum>
614

> <i_i_glide_rotatable_bonds>
11

> <r_i_docking_score>
-9.44099580879779

> <r_i_glide_ligand_efficiency>
-0.248447258126258

> <r_i_glide_ligand_efficiency_sa>
-0.835273570694319

> <r_i_glide_ligand_efficiency_ln>
-2.03575642233562

> <r_i_glide_gscore>
-9.44099580879779

> <r_i_glide_lipo>
-4.46539314464928

> <r_i_glide_hbond>
0

> <r_i_glide_metal>
0

> <r_i_glide_rewards>
-1.06961570167228

> <r_i_glide_evdw>
-64.4252243041992

> <r_i_glide_ecoul>
-8.64870548248291

> <r_i_glide_erotb>
0.619874055048069

> <r_i_glide_esite>
-0.00729397994190635

> <r_i_glide_emodel>
-107.916435565223

> <r_i_glide_energy>
-73.0739297866821

> <r_i_glide_einternal>
11.69704246521

> <i_i_glide_confnum>
6

> <i_i_glide_posenum>
57

> <r_i_glide_eff_state_penalty>
0

> <s_user_duplicate_titles>
CHEMBL1952_lig339,281059

> <i_f3d_flags>
0

> <s_m_subgroup_title>
dock_pv

> <s_m_subgroupid>
dock_pv

> <b_m_subgroup_collapsed>
1

$$$$
CHEMBL1952_lig337
                    3D
 Schrodinger Suite 2021-1.
 59 63  0  0  1  0            999 V2000
   14.1682   12.2944   37.3338 N   0  0  0  0  0  0
   14.9993   11.2484   37.0999 C   0  0  0  0  0  0
   14.5922   13.8153   36.5807 S   0  0  0  0  0  0
   14.6193   17.2317   31.6474 C   0  0  0  0  0  0
   14.3429   18.0413   32.8143 C   0  0  0  0  0  0
   16.1154   11.7438   36.2395 C   0  0  0  0  0  0
   12.9712   12.1744   38.1896 C   0  0  2  0  0  0
   16.0283   13.0897   35.9310 C   0  0  0  0  0  0
   13.4219   19.0278   32.7910 N   0  0  0  0  0  0
   12.8691   18.5340   30.5078 N   0  0  0  0  0  0
   13.7839   17.5272   30.5158 C   0  0  0  0  0  0
   15.6212   16.2082   31.5125 C   0  0  0  0  0  0
   12.7554   19.2462   31.6445 C   0  0  0  0  0  0
   11.6784   12.4959   37.3982 C   0  0  0  0  0  0
   16.9965   13.7025   35.1518 C   0  0  0  0  0  0
   17.1901   10.9862   35.7627 C   0  0  0  0  0  0
   13.1922   13.0807   39.4276 C   0  0  0  0  0  0
   14.8726   10.1000   37.5297 O   0  0  0  0  0  0
   14.9918   17.8098   33.9907 O   0  0  0  0  0  0
   15.6512   15.4281   30.3113 C   0  0  0  0  0  0
   16.6560   15.9466   32.4744 C   0  0  0  0  0  0
   12.2384   14.0154   41.5760 C   0  0  0  0  0  0
   13.8854   16.7751   29.3368 C   0  0  0  0  0  0
   10.9304   13.4201   37.6407 O   0  0  0  0  0  0
   18.9918   13.4953   33.7470 N   0  0  0  0  0  0
   13.2647   14.5468   41.9923 O   0  0  0  0  0  0
   18.0521   12.9482   34.6285 C   0  0  0  0  0  0
   14.7706   15.7166   29.2517 C   0  0  0  0  0  0
   12.1871   12.8721   40.5683 C   0  0  0  0  0  0
   16.5919   14.3877   30.1663 C   0  0  0  0  0  0
   17.6397   14.9743   32.2553 C   0  0  0  0  0  0
   18.1587   11.5941   34.9590 C   0  0  0  0  0  0
   11.5064   11.5859   36.3985 O   0  0  0  0  0  0
   18.8470   14.8380   33.1896 C   0  0  0  0  0  0
   10.9920   14.3527   41.9910 O   0  0  0  0  0  0
   17.5708   14.1758   31.1240 C   0  0  0  0  0  0
   11.8073   20.4268   31.6311 C   0  0  0  0  0  0
   12.8515   11.1547   38.5633 H   0  0  0  0  0  0
   16.8976   14.7518   34.9292 H   0  0  0  0  0  0
   17.2823    9.9350   35.9932 H   0  0  0  0  0  0
   13.1856   14.1275   39.1155 H   0  0  0  0  0  0
   14.1920   12.9012   39.8228 H   0  0  0  0  0  0
   14.6455   18.4181   34.6487 H   0  0  0  0  0  0
   16.7698   16.5531   33.3528 H   0  0  0  0  0  0
   13.2558   17.0279   28.4948 H   0  0  0  0  0  0
   19.7425   12.9055   33.3900 H   0  0  0  0  0  0
   14.8218   15.1339   28.3420 H   0  0  0  0  0  0
   12.3805   11.9278   41.0771 H   0  0  0  0  0  0
   11.1729   12.8108   40.1725 H   0  0  0  0  0  0
   16.5893   13.7920   29.2652 H   0  0  0  0  0  0
   18.9762   11.0044   34.5680 H   0  0  0  0  0  0
   10.7166   11.7875   35.8931 H   0  0  0  0  0  0
   18.8154   15.5836   33.9856 H   0  0  0  0  0  0
   19.7490   15.0283   32.6078 H   0  0  0  0  0  0
   10.9920   15.0283   42.6794 H   0  0  0  0  0  0
   18.3221   13.4174   30.9541 H   0  0  0  0  0  0
   10.8375   20.1242   32.0174 H   0  0  0  0  0  0
   12.1861   21.2391   32.2529 H   0  0  0  0  0  0
   11.6735   20.8216   30.6231 H   0  0  0  0  0  0
  1  2  1  0  0  0
  1  3  1  0  0  0
  1  7  1  0  0  0
  2  6  1  0  0  0
  2 18  2  0  0  0
  3  8  1  0  0  0
  4 12  2  0  0  0
  4  5  1  0  0  0
  4 11  1  0  0  0
  5  9  2  0  0  0
  5 19  1  0  0  0
  6 16  2  0  0  0
  6  8  1  0  0  0
  7 14  1  0  0  0
  7 17  1  0  0  0
  7 38  1  0  0  0
  8 15  2  0  0  0
  9 13  1  0  0  0
 10 11  1  0  0  0
 10 13  2  0  0  0
 11 23  2  0  0  0
 12 21  1  0  0  0
 12 20  1  0  0  0
 13 37  1  0  0  0
 14 24  2  0  0  0
 14 33  1  0  0  0
 15 27  1  0  0  0
 15 39  1  0  0  0
 16 32  1  0  0  0
 16 40  1  0  0  0
 17 29  1  0  0  0
 17 41  1  0  0  0
 17 42  1  0  0  0
 19 43  1  0  0  0
 20 30  1  0  0  0
 20 28  2  0  0  0
 21 31  2  0  0  0
 21 44  1  0  0  0
 22 29  1  0  0  0
 22 26  2  0  0  0
 22 35  1  0  0  0
 23 28  1  0  0  0
 23 45  1  0  0  0
 25 27  1  0  0  0
 25 34  1  0  0  0
 25 46  1  0  0  0
 27 32  2  0  0  0
 28 47  1  0  0  0
 29 48  1  0  0  0
 29 49  1  0  0  0
 30 36  2  0  0  0
 30 50  1  0  0  0
 31 34  1  0  0  0
 31 36  1  0  0  0
 32 51  1  0  0  0
 33 52  1  0  0  0
 34 53  1  0  0  0
 34 54  1  0  0  0
 35 55  1  0  0  0
 36 56  1  0  0  0
 37 57  1  0  0  0
 37 58  1  0  0  0
 37 59  1  0  0  0
M  END
> <s_m_entry_id>
40895

> <s_m_entry_name>
dock_pv.12

> <s_m_Source_Path>
/home/csk/Desktop/cluster/DUD-E-result/tysy

> <s_m_Source_File>
dock_pv.maegz

> <i_m_Source_File_Index>
12

> <chembl_id>
CHEMBL167164

> <chembl_pref_name>
None

> <i_lp_mmshare_version>
53161

> <r_lp_tautomer_probability>
1

> <s_lp_Force_Field>
OPLS_2005

> <r_lp_Energy>
34.344777

> <b_lp_Chiralities_Consistent>
1

> <s_lp_Variant>
CHEMBL1952_lig337-1

> <s_i_glide_gridfile>
glide-grid_1syn

> <i_i_glide_lignum>
612

> <i_i_glide_rotatable_bonds>
11

> <r_i_docking_score>
-9.40303677632903

> <r_i_glide_ligand_efficiency>
-0.254136129089974

> <r_i_glide_ligand_efficiency_sa>
-0.84683796162704

> <r_i_glide_ligand_efficiency_ln>
-2.03929823832771

> <r_i_glide_gscore>
-9.40303677632903

> <r_i_glide_lipo>
-4.41547217562239

> <r_i_glide_hbond>
-0.166307006687926

> <r_i_glide_metal>
0

> <r_i_glide_rewards>
-0.912422559077265

> <r_i_glide_evdw>
-64.1940155029297

> <r_i_glide_ecoul>
-8.0705680847168

> <r_i_glide_erotb>
0.611086677337226

> <r_i_glide_esite>
-0.099635724424673

> <r_i_glide_emodel>
-112.322162727128

> <r_i_glide_energy>
-72.2645835876465

> <r_i_glide_einternal>
2.46674489974976

> <i_i_glide_confnum>
54

> <i_i_glide_posenum>
395

> <r_i_glide_eff_state_penalty>
0

> <s_user_duplicate_titles>
CHEMBL1952_lig337,280791

> <i_f3d_flags>
0

> <s_m_subgroup_title>
dock_pv

> <s_m_subgroupid>
dock_pv

> <b_m_subgroup_collapsed>
1

$$$$
CHEMBL1952_lig333
                    3D
 Schrodinger Suite 2021-1.
 60 63  0  0  1  0            999 V2000
   14.5937   17.2366   31.6914 C   0  0  0  0  0  0
   14.2661   18.0414   32.8499 C   0  0  0  0  0  0
   13.3501   19.0271   32.7910 N   0  0  0  0  0  0
   12.9150   18.5651   30.4759 N   0  0  0  0  0  0
   13.8250   17.5526   30.5181 C   0  0  0  0  0  0
   14.9931   12.4179   36.9681 C   0  0  0  0  0  0
   13.9372   12.1361   38.0163 C   0  0  0  0  0  0
   15.5765   16.1897   31.6079 C   0  0  0  0  0  0
   12.7409   19.2593   31.6176 C   0  0  0  0  0  0
   12.9286   13.0265   38.1071 N   0  0  0  0  0  0
   15.8228   11.3916   36.4781 C   0  0  0  0  0  0
   12.3896   13.3609   40.5855 C   0  0  0  0  0  0
   11.8801   13.0772   39.1458 C   0  0  2  0  0  0
   15.2212   13.7285   36.5134 C   0  0  0  0  0  0
   16.8599   11.6823   35.5911 C   0  0  0  0  0  0
   14.8612   17.8185   34.0552 O   0  0  0  0  0  0
   15.6778   15.4278   30.3988 C   0  0  0  0  0  0
   16.5033   15.8606   32.6519 C   0  0  0  0  0  0
    8.7920   13.0539   38.3344 C   0  0  0  0  0  0
   14.0463   11.1837   38.7889 O   0  0  0  0  0  0
   13.9907   16.8128   29.3364 C   0  0  0  0  0  0
   11.7942   13.0300   41.5902 O   0  0  0  0  0  0
   18.1428   13.2097   34.2552 N   0  0  0  0  0  0
    7.9281   12.8899   39.1920 O   0  0  0  0  0  0
   17.0858   12.9860   35.1537 C   0  0  0  0  0  0
   14.8770   15.7518   29.2869 C   0  0  0  0  0  0
   10.9105   11.8560   39.0473 C   0  0  0  0  0  0
   16.5921   14.3545   30.3105 C   0  0  0  0  0  0
   15.6574   10.1023   36.8609 F   0  0  0  0  0  0
   17.4175   14.8125   32.5262 C   0  0  0  0  0  0
    9.8299   11.9973   37.9559 C   0  0  0  0  0  0
   16.2517   14.0064   35.6202 C   0  0  0  0  0  0
   13.5412   14.0922   40.5655 O   0  0  0  0  0  0
   18.4111   14.5111   33.6445 C   0  0  0  0  0  0
    8.9914   14.2280   37.6765 O   0  0  0  0  0  0
   17.4458   14.0564   31.3612 C   0  0  0  0  0  0
   11.7978   20.4428   31.5914 C   0  0  0  0  0  0
   11.3108   13.9757   38.9249 H   0  0  0  0  0  0
   12.8435   13.7119   37.3713 H   0  0  0  0  0  0
   14.6357   14.5642   36.8693 H   0  0  0  0  0  0
   17.4894   10.8782   35.2386 H   0  0  0  0  0  0
   14.4973   18.4494   34.6823 H   0  0  0  0  0  0
   16.5561   16.4293   33.5586 H   0  0  0  0  0  0
   13.4064   17.0696   28.4636 H   0  0  0  0  0  0
   18.7877   12.4582   34.0435 H   0  0  0  0  0  0
   14.9751   15.1794   28.3744 H   0  0  0  0  0  0
   10.3866   11.6941   39.9912 H   0  0  0  0  0  0
   11.4621   10.9298   38.8819 H   0  0  0  0  0  0
   16.6206   13.7676   29.4051 H   0  0  0  0  0  0
    9.3062   11.0482   37.8376 H   0  0  0  0  0  0
   10.2763   12.2267   36.9874 H   0  0  0  0  0  0
   16.4003   15.0301   35.3203 H   0  0  0  0  0  0
   13.8560   14.1984   39.6643 H   0  0  0  0  0  0
   18.4054   15.2996   34.3985 H   0  0  0  0  0  0
   19.4192   14.5021   33.2254 H   0  0  0  0  0  0
    8.3942   14.9201   37.9921 H   0  0  0  0  0  0
   18.1499   13.2405   31.2606 H   0  0  0  0  0  0
   11.3972   20.6375   30.5958 H   0  0  0  0  0  0
   10.9679   20.2614   32.2720 H   0  0  0  0  0  0
   12.3142   21.3425   31.9288 H   0  0  0  0  0  0
  1  2  1  0  0  0
  1  5  2  0  0  0
  1  8  1  0  0  0
  2  3  2  0  0  0
  2 16  1  0  0  0
  3  9  1  0  0  0
  4  5  1  0  0  0
  4  9  2  0  0  0
  5 21  1  0  0  0
  6 14  2  0  0  0
  6  7  1  0  0  0
  6 11  1  0  0  0
  7 10  1  0  0  0
  7 20  2  0  0  0
  8 17  2  0  0  0
  8 18  1  0  0  0
  9 37  1  0  0  0
 10 13  1  0  0  0
 10 39  1  0  0  0
 11 15  2  0  0  0
 11 29  1  0  0  0
 12 13  1  0  0  0
 12 22  2  0  0  0
 12 33  1  0  0  0
 13 27  1  0  0  0
 13 38  1  0  0  0
 14 32  1  0  0  0
 14 40  1  0  0  0
 15 25  1  0  0  0
 15 41  1  0  0  0
 16 42  1  0  0  0
 17 26  1  0  0  0
 17 28  1  0  0  0
 18 30  2  0  0  0
 18 43  1  0  0  0
 19 31  1  0  0  0
 19 24  2  0  0  0
 19 35  1  0  0  0
 21 26  2  0  0  0
 21 44  1  0  0  0
 23 34  1  0  0  0
 23 25  1  0  0  0
 23 45  1  0  0  0
 25 32  2  0  0  0
 26 46  1  0  0  0
 27 31  1  0  0  0
 27 47  1  0  0  0
 27 48  1  0  0  0
 28 36  2  0  0  0
 28 49  1  0  0  0
 30 34  1  0  0  0
 30 36  1  0  0  0
 31 50  1  0  0  0
 31 51  1  0  0  0
 32 52  1  0  0  0
 33 53  1  0  0  0
 34 54  1  0  0  0
 34 55  1  0  0  0
 35 56  1  0  0  0
 36 57  1  0  0  0
 37 58  1  0  0  0
 37 59  1  0  0  0
 37 60  1  0  0  0
M  END
> <s_m_entry_id>
40896

> <s_m_entry_name>
dock_pv.13

> <s_m_Source_Path>
/home/csk/Desktop/cluster/DUD-E-result/tysy

> <s_m_Source_File>
dock_pv.maegz

> <i_m_Source_File_Index>
13

> <chembl_id>
CHEMBL355323

> <chembl_pref_name>
None

> <i_lp_mmshare_version>
53161

> <r_lp_tautomer_probability>
1

> <s_lp_Force_Field>
OPLS_2005

> <r_lp_Energy>
22.762475

> <b_lp_Chiralities_Consistent>
1

> <s_lp_Variant>
CHEMBL1952_lig333-1

> <s_i_glide_gridfile>
glide-grid_1syn

> <i_i_glide_lignum>
608

> <i_i_glide_rotatable_bonds>
13

> <r_i_docking_score>
-9.3331040645284

> <r_i_glide_ligand_efficiency>
-0.252246055798065

> <r_i_glide_ligand_efficiency_sa>
-0.84053981811011

> <r_i_glide_ligand_efficiency_ln>
-2.02413147259352

> <r_i_glide_gscore>
-9.3331040645284

> <r_i_glide_lipo>
-4.3621119739055

> <r_i_glide_hbond>
-0.154443581737473

> <r_i_glide_metal>
0

> <r_i_glide_rewards>
-0.902554304077393

> <r_i_glide_evdw>
-60.1950912475586

> <r_i_glide_ecoul>
-11.0481472015381

> <r_i_glide_erotb>
0.797596955337043

> <r_i_glide_esite>
-0.0446145175364401

> <r_i_glide_emodel>
-108.877020656317

> <r_i_glide_energy>
-71.2432384490967

> <r_i_glide_einternal>
5.80069732666016

> <i_i_glide_confnum>
70

> <i_i_glide_posenum>
231

> <r_i_glide_eff_state_penalty>
0

> <s_user_duplicate_titles>
CHEMBL1952_lig333,281052

> <i_f3d_flags>
0

> <s_m_subgroup_title>
dock_pv

> <s_m_subgroupid>
dock_pv

> <b_m_subgroup_collapsed>
1

$$$$
CHEMBL1952_lig218
                    3D
 Schrodinger Suite 2021-1.
 64 66  0  0  1  0            999 V2000
   13.3562   17.8537   31.4898 N   0  0  0  0  0  0
   13.3309   17.0423   30.3924 C   0  0  0  0  0  0
   14.2223   16.1339   30.2133 N   0  0  0  0  0  0
   14.2719   17.8542   32.4823 C   0  0  0  0  0  0
   14.2001   18.6280   33.4285 O   0  0  0  0  0  0
   15.3482   16.8225   32.2749 C   0  0  0  0  0  0
   15.2653   15.9955   31.1507 C   0  0  0  0  0  0
   16.2518   15.0316   30.9413 C   0  0  0  0  0  0
   17.3194   14.9186   31.8418 C   0  0  0  0  0  0
   17.4061   15.7693   32.9583 C   0  0  0  0  0  0
   16.4068   16.7182   33.1720 C   0  0  0  0  0  0
   18.6060   15.7412   33.9171 C   0  0  0  0  0  0
   19.1390   14.4002   34.1539 N   0  0  0  0  0  0
   18.2965   13.4433   34.7874 C   0  0  0  0  0  0
   17.0894   13.8045   35.4125 C   0  0  0  0  0  0
   16.2577   12.8523   35.9914 C   0  0  0  0  0  0
   16.5978   11.4947   35.9533 C   0  0  0  0  0  0
   17.7916   11.1232   35.3184 C   0  0  0  0  0  0
   18.6239   12.0866   34.7608 C   0  0  0  0  0  0
   15.6837   10.4603   36.5530 C   0  0  0  0  0  0
   16.1247    9.4808   37.1540 O   0  0  0  0  0  0
   14.3730   10.6963   36.3905 N   0  0  0  0  0  0
   13.2872    9.8304   36.8614 C   0  0  1  0  0  0
   12.1384   10.7124   37.4365 C   0  0  0  0  0  0
   12.8738    8.8354   35.7462 C   0  0  0  0  0  0
   11.6422    8.3119   35.9910 O   0  0  0  0  0  0
   13.5662    8.5417   34.7914 O   0  0  0  0  0  0
   12.6134   11.7257   38.5102 C   0  0  0  0  0  0
   11.4787   12.3350   39.3344 C   0  0  0  0  0  0
   10.5947   13.0398   38.5726 O   0  0  0  0  0  0
   11.3913   12.2271   40.5572 O   0  0  0  0  0  0
   12.2098   17.2416   29.4004 C   0  0  0  0  0  0
   18.1520    9.8290   35.1922 F   0  0  0  0  0  0
   20.6083   14.2800   34.2446 C   0  0  0  0  0  0
   21.3930   14.4349   32.9045 C   0  0  0  0  0  0
   22.8760   13.9743   32.9806 C   0  0  0  0  0  0
   23.7919   15.0281   33.1909 O   0  0  0  0  0  0
   12.6445   18.5580   31.5960 H   0  0  0  0  0  0
   16.1989   14.3874   30.0763 H   0  0  0  0  0  0
   18.0940   14.1844   31.6614 H   0  0  0  0  0  0
   16.4770   17.4130   33.9916 H   0  0  0  0  0  0
   18.3177   16.1529   34.8780 H   0  0  0  0  0  0
   19.3919   16.4126   33.5910 H   0  0  0  0  0  0
   16.7700   14.8321   35.4744 H   0  0  0  0  0  0
   15.3525   13.1914   36.4746 H   0  0  0  0  0  0
   19.5112   11.7476   34.2548 H   0  0  0  0  0  0
   14.0982   11.4776   35.8158 H   0  0  0  0  0  0
   13.6577    9.2093   37.6791 H   0  0  0  0  0  0
   11.3679   10.0728   37.8718 H   0  0  0  0  0  0
   11.6564   11.2550   36.6209 H   0  0  0  0  0  0
   11.3928    7.7350   35.2562 H   0  0  0  0  0  0
   13.1926   12.5307   38.0579 H   0  0  0  0  0  0
   13.2859   11.2223   39.2064 H   0  0  0  0  0  0
   10.8111   13.0353   37.6384 H   0  0  0  0  0  0
   12.6085   17.3582   28.3929 H   0  0  0  0  0  0
   11.5271   16.3923   29.4103 H   0  0  0  0  0  0
   11.6211   18.1354   29.6160 H   0  0  0  0  0  0
   21.0053   14.9605   34.9989 H   0  0  0  0  0  0
   20.8800   13.3166   34.6732 H   0  0  0  0  0  0
   20.8791   13.8281   32.1674 H   0  0  0  0  0  0
   21.3136   15.4140   32.4316 H   0  0  0  0  0  0
   23.0209   13.2340   33.7687 H   0  0  0  0  0  0
   23.1441   13.4662   32.0534 H   0  0  0  0  0  0
   23.8593   15.5068   32.3541 H   0  0  0  0  0  0
  1  2  1  0  0  0
  1  4  1  0  0  0
  1 38  1  0  0  0
  2 32  1  0  0  0
  2  3  2  0  0  0
  3  7  1  0  0  0
  4  6  1  0  0  0
  4  5  2  0  0  0
  6 11  1  0  0  0
  6  7  2  0  0  0
  7  8  1  0  0  0
  8  9  2  0  0  0
  8 39  1  0  0  0
  9 10  1  0  0  0
  9 40  1  0  0  0
 10 11  2  0  0  0
 10 12  1  0  0  0
 11 41  1  0  0  0
 12 13  1  0  0  0
 12 42  1  0  0  0
 12 43  1  0  0  0
 13 14  1  0  0  0
 13 34  1  0  0  0
 14 19  1  0  0  0
 14 15  2  0  0  0
 15 16  1  0  0  0
 15 44  1  0  0  0
 16 17  2  0  0  0
 16 45  1  0  0  0
 17 18  1  0  0  0
 17 20  1  0  0  0
 18 19  2  0  0  0
 18 33  1  0  0  0
 19 46  1  0  0  0
 20 21  2  0  0  0
 20 22  1  0  0  0
 22 23  1  0  0  0
 22 47  1  0  0  0
 23 24  1  0  0  0
 23 25  1  0  0  0
 23 48  1  0  0  0
 24 28  1  0  0  0
 24 49  1  0  0  0
 24 50  1  0  0  0
 25 26  1  0  0  0
 25 27  2  0  0  0
 26 51  1  0  0  0
 28 29  1  0  0  0
 28 52  1  0  0  0
 28 53  1  0  0  0
 29 30  1  0  0  0
 29 31  2  0  0  0
 30 54  1  0  0  0
 32 55  1  0  0  0
 32 56  1  0  0  0
 32 57  1  0  0  0
 34 35  1  0  0  0
 34 58  1  0  0  0
 34 59  1  0  0  0
 35 36  1  0  0  0
 35 60  1  0  0  0
 35 61  1  0  0  0
 36 37  1  0  0  0
 36 62  1  0  0  0
 36 63  1  0  0  0
 37 64  1  0  0  0
M  END
> <s_m_entry_id>
40897

> <s_m_entry_name>
dock_pv.14

> <s_m_Source_Path>
/home/csk/Desktop/cluster/DUD-E-result/tysy

> <s_m_Source_File>
dock_pv.maegz

> <i_m_Source_File_Index>
14

> <chembl_id>
CHEMBL104851

> <chembl_pref_name>
None

> <i_lp_mmshare_version>
53161

> <r_lp_tautomer_probability>
0.883938

> <s_lp_Force_Field>
OPLS_2005

> <r_lp_Energy>
28.508889

> <b_lp_Chiralities_Consistent>
1

> <s_lp_Variant>
CHEMBL1952_lig218-1

> <s_i_glide_gridfile>
glide-grid_1syn

> <i_i_glide_lignum>
432

> <i_i_glide_rotatable_bonds>
16

> <r_i_docking_score>
-9.30002333141434

> <r_i_glide_ligand_efficiency>
-0.251351981930117

> <r_i_glide_ligand_efficiency_sa>
-0.837560565633934

> <r_i_glide_ligand_efficiency_ln>
-2.0169570371035

> <r_i_glide_gscore>
-9.30002333141434

> <r_i_glide_lipo>
-3.13081224140682

> <r_i_glide_hbond>
-1.02830654756492

> <r_i_glide_metal>
0

> <r_i_glide_rewards>
-0.582232911668895

> <r_i_glide_evdw>
-53.0338897705078

> <r_i_glide_ecoul>
-19.1743679046631

> <r_i_glide_erotb>
1.00739014797206

> <r_i_glide_esite>
-0.0382121045208977

> <r_i_glide_emodel>
-105.322527640469

> <r_i_glide_energy>
-72.2082576751709

> <r_i_glide_einternal>
9.71255493164062

> <i_i_glide_confnum>
93

> <i_i_glide_posenum>
348

> <r_i_glide_eff_state_penalty>
0

> <s_user_duplicate_titles>
CHEMBL1952_lig218,CHEMBL1952_lig218,171040

> <i_f3d_flags>
0

> <s_m_subgroup_title>
dock_pv

> <s_m_subgroupid>
dock_pv

> <b_m_subgroup_collapsed>
1

$$$$
CHEMBL1952_lig170
                    3D
 Schrodinger Suite 2021-1.
 39 42  0  0  1  0            999 V2000
   16.9918   13.6792   34.8263 C   0  0  0  0  0  0
   16.3629   14.9090   34.6292 C   0  0  0  0  0  0
   15.1485   15.1839   35.2539 C   0  0  0  0  0  0
   14.5215   14.2303   36.0470 C   0  0  0  0  0  0
   17.1304   16.1184   33.5910 S   0  0  0  0  0  0
   15.9430   16.3034   32.2933 C   0  0  0  0  0  0
   14.7689   16.0347   29.9941 S   0  0  0  0  0  0
   16.0849   15.6282   31.0770 C   0  0  0  0  0  0
   14.1479   17.2128   31.1010 C   0  0  0  0  0  0
   14.8869   17.2407   32.2848 C   0  0  0  0  0  0
   14.5059   18.2291   33.2934 C   0  0  0  0  0  0
   13.4744   19.0086   32.8653 N   0  0  0  0  0  0
   12.8036   18.9495   31.6753 C   0  0  0  0  0  0
   13.1014   18.0469   30.8012 N   0  0  0  0  0  0
   17.2211   14.7209   30.6419 C   0  0  0  0  0  0
   11.7956   19.9077   31.4792 N   0  0  0  0  0  0
   14.9925   18.4559   34.3910 O   0  0  0  0  0  0
   16.9552   13.2403   30.9094 C   0  0  0  0  0  0
   16.3516   12.6649   35.5888 C   0  0  0  0  0  0
   15.0939   12.9473   36.2058 C   0  0  0  0  0  0
   14.4346   11.9293   36.9364 C   0  0  0  0  0  0
   14.9858   10.6545   37.0143 C   0  0  0  0  0  0
   16.1967   10.3725   36.3928 C   0  0  0  0  0  0
   16.8953   11.3619   35.7049 C   0  0  0  0  0  0
   17.9349   13.4660   34.3429 H   0  0  0  0  0  0
   14.6757   16.1427   35.1349 H   0  0  0  0  0  0
   13.5760   14.4568   36.5171 H   0  0  0  0  0  0
   13.2173   19.7274   33.5337 H   0  0  0  0  0  0
   17.4418   14.8732   29.5904 H   0  0  0  0  0  0
   18.1417   14.9976   31.1573 H   0  0  0  0  0  0
   11.1161   19.7594   30.7398 H   0  0  0  0  0  0
   11.3850   20.3622   32.2783 H   0  0  0  0  0  0
   17.8516   12.6341   30.7909 H   0  0  0  0  0  0
   16.6041   13.0859   31.9284 H   0  0  0  0  0  0
   16.1948   12.8559   30.2275 H   0  0  0  0  0  0
   13.4851   12.1402   37.4063 H   0  0  0  0  0  0
   14.4634    9.8754   37.5489 H   0  0  0  0  0  0
   16.5920    9.3722   36.4423 H   0  0  0  0  0  0
   17.8370   11.1335   35.2248 H   0  0  0  0  0  0
  1 19  1  0  0  0
  1  2  2  0  0  0
  1 25  1  0  0  0
  2  5  1  0  0  0
  2  3  1  0  0  0
  3  4  2  0  0  0
  3 26  1  0  0  0
  4 20  1  0  0  0
  4 27  1  0  0  0
  5  6  1  0  0  0
  6 10  1  0  0  0
  6  8  2  0  0  0
  7  9  1  0  0  0
  7  8  1  0  0  0
  8 15  1  0  0  0
  9 14  1  0  0  0
  9 10  2  0  0  0
 10 11  1  0  0  0
 11 12  1  0  0  0
 11 17  2  0  0  0
 12 13  1  0  0  0
 12 28  1  0  0  0
 13 14  2  0  0  0
 13 16  1  0  0  0
 15 18  1  0  0  0
 15 29  1  0  0  0
 15 30  1  0  0  0
 16 31  1  0  0  0
 16 32  1  0  0  0
 18 33  1  0  0  0
 18 34  1  0  0  0
 18 35  1  0  0  0
 19 20  1  0  0  0
 19 24  2  0  0  0
 20 21  2  0  0  0
 21 22  1  0  0  0
 21 36  1  0  0  0
 22 23  2  0  0  0
 22 37  1  0  0  0
 23 24  1  0  0  0
 23 38  1  0  0  0
 24 39  1  0  0  0
M  END
> <s_m_entry_id>
40898

> <s_m_entry_name>
dock_pv.15

> <s_m_Source_Path>
/home/csk/Desktop/cluster/DUD-E-result/tysy

> <s_m_Source_File>
dock_pv.maegz

> <i_m_Source_File_Index>
15

> <chembl_id>
CHEMBL550296

> <chembl_pref_name>
None

> <i_lp_mmshare_version>
53161

> <r_lp_tautomer_probability>
1

> <s_lp_Force_Field>
OPLS_2005

> <r_lp_Energy>
17.761368

> <b_lp_Chiralities_Consistent>
1

> <s_lp_Variant>
CHEMBL1952_lig170-1

> <s_i_glide_gridfile>
glide-grid_1syn

> <i_i_glide_lignum>
347

> <i_i_glide_rotatable_bonds>
3

> <r_i_docking_score>
-9.26779179674218

> <r_i_glide_ligand_efficiency>
-0.386157991530924

> <r_i_glide_ligand_efficiency_sa>
-1.11387239353251

> <r_i_glide_ligand_efficiency_ln>
-2.21820784821491

> <r_i_glide_gscore>
-9.26779179674218

> <r_i_glide_lipo>
-4.48507428203491

> <r_i_glide_hbond>
-0.439216418642914

> <r_i_glide_metal>
0

> <r_i_glide_rewards>
-1.50842727232884

> <r_i_glide_evdw>
-45.51708984375

> <r_i_glide_ecoul>
-5.6877908706665

> <r_i_glide_erotb>
0.305710127847921

> <r_i_glide_esite>
-0.011760828795968

> <r_i_glide_emodel>
-80.1278882373871

> <r_i_glide_energy>
-51.2048807144165

> <r_i_glide_einternal>
1.3639532327652

> <i_i_glide_confnum>
8

> <i_i_glide_posenum>
91

> <r_i_glide_eff_state_penalty>
0

> <s_user_duplicate_titles>
CHEMBL1952_lig170

> <i_f3d_flags>
0

> <s_m_subgroup_title>
dock_pv

> <s_m_subgroupid>
dock_pv

> <b_m_subgroup_collapsed>
1

$$$$
CHEMBL1952_lig289
                    3D
 Schrodinger Suite 2021-1.
 40 44  0  0  1  0            999 V2000
   13.4439   19.0280   33.1153 N   0  0  0  0  0  0
   12.7067   19.2697   31.9765 C   0  0  0  0  0  0
   12.8615   18.5410   30.9268 N   0  0  0  0  0  0
   14.4173   18.0905   33.3144 C   0  0  0  0  0  0
   14.5968   17.2824   32.1101 C   0  0  0  0  0  0
   13.8022   17.5637   31.0100 C   0  0  0  0  0  0
   14.0890   16.7077   29.9920 N   0  0  0  0  0  0
   15.4544   16.1790   31.7438 C   0  0  0  0  0  0
   15.0645   15.8228   30.4005 C   0  0  0  0  0  0
   15.6263   14.7451   29.7139 C   0  0  0  0  0  0
   16.5921   14.0097   30.3909 C   0  0  0  0  0  0
   17.0446   14.3578   31.6510 C   0  0  0  0  0  0
   16.4935   15.4278   32.3506 C   0  0  0  0  0  0
   17.1528   15.7856   33.9514 S   0  0  0  0  0  0
   16.3502   14.5769   34.9819 C   0  0  0  0  0  0
   15.1199   14.8458   35.5753 C   0  0  0  0  0  0
   14.4663   13.8651   36.3091 C   0  0  0  0  0  0
   15.0195   12.5960   36.4431 C   0  0  0  0  0  0
   16.9922   13.3050   35.1453 C   0  0  0  0  0  0
   16.2786   12.2915   35.8665 C   0  0  0  0  0  0
   16.8395   10.9950   35.9904 C   0  0  0  0  0  0
   18.0919   10.7124   35.4562 C   0  0  0  0  0  0
   18.8077   11.6969   34.7919 C   0  0  0  0  0  0
   18.2802   12.9732   34.6304 C   0  0  0  0  0  0
   14.9920   18.0321   34.3910 O   0  0  0  0  0  0
   11.7919   20.3345   31.9910 N   0  0  0  0  0  0
   13.2935   19.6533   33.9048 H   0  0  0  0  0  0
   13.6167   16.7677   29.1042 H   0  0  0  0  0  0
   15.3052   14.4620   28.7213 H   0  0  0  0  0  0
   16.9924   13.1204   29.9399 H   0  0  0  0  0  0
   17.8270   13.7580   32.0914 H   0  0  0  0  0  0
   14.6589   15.8140   35.4584 H   0  0  0  0  0  0
   13.5090   14.0861   36.7586 H   0  0  0  0  0  0
   14.4900   11.8336   36.9958 H   0  0  0  0  0  0
   16.2936   10.2288   36.5200 H   0  0  0  0  0  0
   18.5257    9.7305   35.5658 H   0  0  0  0  0  0
   19.7849   11.4678   34.3920 H   0  0  0  0  0  0
   18.8706   13.7092   34.1060 H   0  0  0  0  0  0
   11.0859   20.3491   31.2651 H   0  0  0  0  0  0
   11.4530   20.6651   32.8815 H   0  0  0  0  0  0
  1  2  1  0  0  0
  1  4  1  0  0  0
  1 27  1  0  0  0
  2  3  2  0  0  0
  2 26  1  0  0  0
  3  6  1  0  0  0
  4  5  1  0  0  0
  4 25  2  0  0  0
  5  6  2  0  0  0
  5  8  1  0  0  0
  6  7  1  0  0  0
  7  9  1  0  0  0
  7 28  1  0  0  0
  8  9  2  0  0  0
  8 13  1  0  0  0
  9 10  1  0  0  0
 10 11  2  0  0  0
 10 29  1  0  0  0
 11 12  1  0  0  0
 11 30  1  0  0  0
 12 13  2  0  0  0
 12 31  1  0  0  0
 13 14  1  0  0  0
 14 15  1  0  0  0
 15 16  2  0  0  0
 15 19  1  0  0  0
 16 17  1  0  0  0
 16 32  1  0  0  0
 17 18  2  0  0  0
 17 33  1  0  0  0
 18 20  1  0  0  0
 18 34  1  0  0  0
 19 20  1  0  0  0
 19 24  2  0  0  0
 20 21  2  0  0  0
 21 22  1  0  0  0
 21 35  1  0  0  0
 22 23  2  0  0  0
 22 36  1  0  0  0
 23 24  1  0  0  0
 23 37  1  0  0  0
 24 38  1  0  0  0
 26 39  1  0  0  0
 26 40  1  0  0  0
M  END
> <s_m_entry_id>
40899

> <s_m_entry_name>
dock_pv.16

> <s_m_Source_Path>
/home/csk/Desktop/cluster/DUD-E-result/tysy

> <s_m_Source_File>
dock_pv.maegz

> <i_m_Source_File_Index>
16

> <chembl_id>
CHEMBL3099581

> <chembl_pref_name>
None

> <i_lp_mmshare_version>
53161

> <r_lp_tautomer_probability>
1

> <s_lp_Force_Field>
OPLS_2005

> <r_lp_Energy>
30.762213

> <b_lp_Chiralities_Consistent>
1

> <s_lp_Variant>
CHEMBL1952_lig289-1

> <s_i_glide_gridfile>
glide-grid_1syn

> <i_i_glide_lignum>
559

> <i_i_glide_rotatable_bonds>
2

> <r_i_docking_score>
-9.25004804202778

> <r_i_glide_ligand_efficiency>
-0.35577107853953

> <r_i_glide_ligand_efficiency_sa>
-1.05397042028176

> <r_i_glide_ligand_efficiency_ln>
-2.17234343078699

> <r_i_glide_gscore>
-9.25004804202778

> <r_i_glide_lipo>
-4.21260744868611

> <r_i_glide_hbond>
-0.456

> <r_i_glide_metal>
0

> <r_i_glide_rewards>
-1.60720454714305

> <r_i_glide_evdw>
-49.8839340209961

> <r_i_glide_ecoul>
-5.01572799682617

> <r_i_glide_erotb>
0.298226332454555

> <r_i_glide_esite>
-0.0259064780794424

> <r_i_glide_emodel>
-85.9222772010034

> <r_i_glide_energy>
-54.8996620178223

> <r_i_glide_einternal>
0.808596253395081

> <i_i_glide_confnum>
4

> <i_i_glide_posenum>
2

> <r_i_glide_eff_state_penalty>
0

> <s_user_duplicate_titles>
CHEMBL1952_lig289

> <i_f3d_flags>
0

> <s_m_subgroup_title>
dock_pv

> <s_m_subgroupid>
dock_pv

> <b_m_subgroup_collapsed>
1

$$$$
CHEMBL1952_lig336
                    3D
 Schrodinger Suite 2021-1.
 63 66  0  0  1  0            999 V2000
   14.7843   16.9526   32.0769 C   0  0  0  0  0  0
   14.2126   17.7237   33.1624 C   0  0  0  0  0  0
   13.2807   18.6685   32.9431 N   0  0  0  0  0  0
   13.3008   18.2264   30.5832 N   0  0  0  0  0  0
   14.2269   17.2475   30.7843 C   0  0  0  0  0  0
   15.8119   15.9544   32.1700 C   0  0  0  0  0  0
   12.9006   18.9029   31.6784 C   0  0  0  0  0  0
   13.0288   10.8555   37.1895 C   0  0  0  0  0  0
   11.9367   11.5294   36.7912 N   0  0  0  0  0  0
   10.1123    9.9140   36.1310 C   0  0  0  0  0  0
   17.9861   12.9081   35.1478 N   0  0  0  0  0  0
   10.5475   11.1132   37.0150 C   0  0  2  0  0  0
   16.5089   15.6306   33.3772 C   0  0  0  0  0  0
   14.3429   11.4216   36.7203 C   0  0  0  0  0  0
   14.5792   17.5127   34.4555 O   0  0  0  0  0  0
   16.1912   15.2305   30.9933 C   0  0  0  0  0  0
    9.9085   13.4211   39.1921 C   0  0  0  0  0  0
   16.7761   12.4202   35.7074 C   0  0  0  0  0  0
   14.6327   16.5223   29.6495 C   0  0  0  0  0  0
   18.1605   14.3138   34.7562 C   0  0  0  0  0  0
   12.9861    9.8162   37.8512 O   0  0  0  0  0  0
   17.4693   14.6241   33.4300 C   0  0  0  0  0  0
    9.2609    9.1246   36.4754 O   0  0  0  0  0  0
   10.6285   12.6452   39.8169 O   0  0  0  0  0  0
   14.5051   12.7933   36.4881 C   0  0  0  0  0  0
   15.4178   10.5608   36.4907 C   0  0  0  0  0  0
   15.7073   13.2804   35.9911 C   0  0  0  0  0  0
   16.6163   11.0551   35.9911 C   0  0  0  0  0  0
   15.5852   15.5235   29.7541 C   0  0  0  0  0  0
    9.5975   12.3340   36.8608 C   0  0  0  0  0  0
   17.1733   14.2166   31.0714 C   0  0  0  0  0  0
    9.9618   13.6085   37.6705 C   0  0  0  0  0  0
   10.8054    9.8582   34.9530 O   0  0  0  0  0  0
   17.7953   13.9230   32.2743 C   0  0  0  0  0  0
    8.9920   14.2277   39.7976 O   0  0  0  0  0  0
   11.9528   20.0673   31.4892 C   0  0  0  0  0  0
   19.0503   11.9796   34.7704 C   0  0  0  0  0  0
   10.4883   10.7516   38.0428 H   0  0  0  0  0  0
   12.0630   12.3173   36.1778 H   0  0  0  0  0  0
   16.3326   16.1491   34.2980 H   0  0  0  0  0  0
   14.1005   18.1406   35.0024 H   0  0  0  0  0  0
   14.1936   16.7488   28.6871 H   0  0  0  0  0  0
   17.8148   14.9760   35.5496 H   0  0  0  0  0  0
   19.2200   14.5438   34.6328 H   0  0  0  0  0  0
   13.7074   13.4967   36.6738 H   0  0  0  0  0  0
   15.3247    9.4997   36.6727 H   0  0  0  0  0  0
   15.7757   14.3408   35.8133 H   0  0  0  0  0  0
   17.4133   10.3508   35.8191 H   0  0  0  0  0  0
   15.8806   14.9712   28.8736 H   0  0  0  0  0  0
    8.5820   12.0355   37.1249 H   0  0  0  0  0  0
    9.5508   12.6207   35.8082 H   0  0  0  0  0  0
   17.4330   13.6527   30.1893 H   0  0  0  0  0  0
    9.2874   14.4147   37.3809 H   0  0  0  0  0  0
   10.9602   13.9606   37.4077 H   0  0  0  0  0  0
   10.5850    9.0743   34.4440 H   0  0  0  0  0  0
   18.5423   13.1421   32.2992 H   0  0  0  0  0  0
    8.5370   14.8313   39.1906 H   0  0  0  0  0  0
   10.9972   19.8693   31.9799 H   0  0  0  0  0  0
   12.3719   20.9677   31.9431 H   0  0  0  0  0  0
   11.7916   20.2750   30.4318 H   0  0  0  0  0  0
   18.6628   11.1530   34.1688 H   0  0  0  0  0  0
   19.7924   12.4857   34.1602 H   0  0  0  0  0  0
   19.5455   11.5605   35.6504 H   0  0  0  0  0  0
  1  2  1  0  0  0
  1  5  2  0  0  0
  1  6  1  0  0  0
  2  3  2  0  0  0
  2 15  1  0  0  0
  3  7  1  0  0  0
  4  5  1  0  0  0
  4  7  2  0  0  0
  5 19  1  0  0  0
  6 13  2  0  0  0
  6 16  1  0  0  0
  7 36  1  0  0  0
  8 14  1  0  0  0
  8  9  1  0  0  0
  8 21  2  0  0  0
  9 12  1  0  0  0
  9 39  1  0  0  0
 10 12  1  0  0  0
 10 23  2  0  0  0
 10 33  1  0  0  0
 11 20  1  0  0  0
 11 18  1  0  0  0
 11 37  1  0  0  0
 12 30  1  0  0  0
 12 38  1  0  0  0
 13 22  1  0  0  0
 13 40  1  0  0  0
 14 26  1  0  0  0
 14 25  2  0  0  0
 15 41  1  0  0  0
 16 29  1  0  0  0
 16 31  2  0  0  0
 17 32  1  0  0  0
 17 24  2  0  0  0
 17 35  1  0  0  0
 18 27  2  0  0  0
 18 28  1  0  0  0
 19 29  2  0  0  0
 19 42  1  0  0  0
 20 22  1  0  0  0
 20 43  1  0  0  0
 20 44  1  0  0  0
 22 34  2  0  0  0
 25 27  1  0  0  0
 25 45  1  0  0  0
 26 28  2  0  0  0
 26 46  1  0  0  0
 27 47  1  0  0  0
 28 48  1  0  0  0
 29 49  1  0  0  0
 30 32  1  0  0  0
 30 50  1  0  0  0
 30 51  1  0  0  0
 31 34  1  0  0  0
 31 52  1  0  0  0
 32 53  1  0  0  0
 32 54  1  0  0  0
 33 55  1  0  0  0
 34 56  1  0  0  0
 35 57  1  0  0  0
 36 58  1  0  0  0
 36 59  1  0  0  0
 36 60  1  0  0  0
 37 61  1  0  0  0
 37 62  1  0  0  0
 37 63  1  0  0  0
M  END
> <s_m_entry_id>
40900

> <s_m_entry_name>
dock_pv.17

> <s_m_Source_Path>
/home/csk/Desktop/cluster/DUD-E-result/tysy

> <s_m_Source_File>
dock_pv.maegz

> <i_m_Source_File_Index>
17

> <chembl_id>
CHEMBL168367

> <chembl_pref_name>
None

> <i_lp_mmshare_version>
53161

> <r_lp_tautomer_probability>
1

> <s_lp_Force_Field>
OPLS_2005

> <r_lp_Energy>
28.136815

> <b_lp_Chiralities_Consistent>
1

> <s_lp_Variant>
CHEMBL1952_lig336-1

> <s_i_glide_gridfile>
glide-grid_1syn

> <i_i_glide_lignum>
611

> <i_i_glide_rotatable_bonds>
13

> <r_i_docking_score>
-9.23521922119105

> <r_i_glide_ligand_efficiency>
-0.24960051949165

> <r_i_glide_ligand_efficiency_sa>
-0.831724304231162

> <r_i_glide_ligand_efficiency_ln>
-2.00290254481996

> <r_i_glide_gscore>
-9.23521922119105

> <r_i_glide_lipo>
-4.48685519632502

> <r_i_glide_hbond>
0

> <r_i_glide_metal>
0

> <r_i_glide_rewards>
-1.1903102547605

> <r_i_glide_evdw>
-58.5899696350098

> <r_i_glide_ecoul>
-9.54903793334961

> <r_i_glide_erotb>
0.809177093300313

> <r_i_glide_esite>
-0.00537669165290893

> <r_i_glide_emodel>
-97.0527938288071

> <r_i_glide_energy>
-68.1390075683594

> <r_i_glide_einternal>
12.9814825057983

> <i_i_glide_confnum>
46

> <i_i_glide_posenum>
391

> <r_i_glide_eff_state_penalty>
0

> <s_user_duplicate_titles>
CHEMBL1952_lig336,281214

> <i_f3d_flags>
0

> <s_m_subgroup_title>
dock_pv

> <s_m_subgroupid>
dock_pv

> <b_m_subgroup_collapsed>
1

$$$$
CHEMBL1952_lig131
                    3D
 Schrodinger Suite 2021-1.
 50 52  0  0  1  0            999 V2000
   13.3278    8.6138   35.8692 C   0  0  0  0  0  0
   14.4581   10.7381   36.4229 N   0  0  0  0  0  0
   13.7375    9.6000   36.9955 C   0  0  1  0  0  0
   12.5870   10.1464   37.8968 C   0  0  0  0  0  0
   13.0525   11.2005   38.9338 C   0  0  0  0  0  0
   11.9998   11.5475   39.9824 C   0  0  0  0  0  0
   12.1923   11.4421   41.1919 O   0  0  0  0  0  0
   10.8430   12.0249   39.4421 O   0  0  0  0  0  0
   14.0813    8.2312   34.9940 O   0  0  0  0  0  0
   12.0295    8.2221   35.9911 O   0  0  0  0  0  0
   15.7895   10.9006   36.3908 C   0  0  0  0  0  0
   16.2581   12.1984   35.7918 C   0  0  0  0  0  0
   17.4634   12.2273   35.0789 C   0  0  0  0  0  0
   17.8523   13.3853   34.4164 C   0  0  0  0  0  0
   17.0467   14.5193   34.4813 C   0  0  0  0  0  0
   15.8904   14.5350   35.2552 C   0  0  0  0  0  0
   15.4960   13.3732   35.9155 C   0  0  0  0  0  0
   16.5850   10.0523   36.7911 O   0  0  0  0  0  0
   17.5233   15.9481   33.5910 S   0  0  0  0  0  0
   12.9925   18.6251   31.7771 C   0  0  0  0  0  0
   13.2932   17.6559   30.9749 N   0  0  0  0  0  0
   14.3756   16.8989   31.3275 C   0  0  0  0  0  0
   15.1562   17.0674   32.4653 C   0  0  0  0  0  0
   14.8112   18.1528   33.3757 C   0  0  0  0  0  0
   13.7096   18.8324   32.9338 N   0  0  0  0  0  0
   14.9113   15.8744   30.6016 N   0  0  0  0  0  0
   16.1922   16.1121   32.4364 C   0  0  0  0  0  0
   16.0193   15.3784   31.2536 C   0  0  0  0  0  0
   15.3920   18.5030   34.3898 O   0  0  0  0  0  0
   16.8234   14.2500   30.6481 C   0  0  0  0  0  0
   11.9344   19.5160   31.5201 N   0  0  0  0  0  0
   13.8873   11.4344   35.9719 H   0  0  0  0  0  0
   14.4138    9.0344   37.6400 H   0  0  0  0  0  0
   12.1058    9.3165   38.4200 H   0  0  0  0  0  0
   11.8179   10.5938   37.2639 H   0  0  0  0  0  0
   13.3645   12.1235   38.4447 H   0  0  0  0  0  0
   13.9330   10.8263   39.4597 H   0  0  0  0  0  0
   10.8570   12.0519   38.4837 H   0  0  0  0  0  0
   11.7902    7.6496   35.2514 H   0  0  0  0  0  0
   18.0805   11.3425   34.9879 H   0  0  0  0  0  0
   18.7612   13.3871   33.8277 H   0  0  0  0  0  0
   15.2897   15.4315   35.3274 H   0  0  0  0  0  0
   14.5821   13.3961   36.4902 H   0  0  0  0  0  0
   13.4261   19.5931   33.5401 H   0  0  0  0  0  0
   14.5586   15.5500   29.7137 H   0  0  0  0  0  0
   17.3231   13.6524   31.4109 H   0  0  0  0  0  0
   16.2090   13.5619   30.0649 H   0  0  0  0  0  0
   17.6043   14.6304   29.9917 H   0  0  0  0  0  0
   11.2582   19.3330   30.7857 H   0  0  0  0  0  0
   11.5856   20.1251   32.2437 H   0  0  0  0  0  0
  1  3  1  0  0  0
  1  9  2  0  0  0
  1 10  1  0  0  0
  2  3  1  0  0  0
  2 11  1  0  0  0
  2 32  1  0  0  0
  3  4  1  0  0  0
  3 33  1  0  0  0
  4  5  1  0  0  0
  4 34  1  0  0  0
  4 35  1  0  0  0
  5  6  1  0  0  0
  5 36  1  0  0  0
  5 37  1  0  0  0
  6  7  2  0  0  0
  6  8  1  0  0  0
  8 38  1  0  0  0
 10 39  1  0  0  0
 11 12  1  0  0  0
 11 18  2  0  0  0
 12 13  1  0  0  0
 12 17  2  0  0  0
 13 14  2  0  0  0
 13 40  1  0  0  0
 14 15  1  0  0  0
 14 41  1  0  0  0
 15 16  2  0  0  0
 15 19  1  0  0  0
 16 17  1  0  0  0
 16 42  1  0  0  0
 17 43  1  0  0  0
 19 27  1  0  0  0
 20 21  2  0  0  0
 20 25  1  0  0  0
 20 31  1  0  0  0
 21 22  1  0  0  0
 22 23  2  0  0  0
 22 26  1  0  0  0
 23 24  1  0  0  0
 23 27  1  0  0  0
 24 25  1  0  0  0
 24 29  2  0  0  0
 25 44  1  0  0  0
 26 28  1  0  0  0
 26 45  1  0  0  0
 27 28  2  0  0  0
 28 30  1  0  0  0
 30 46  1  0  0  0
 30 47  1  0  0  0
 30 48  1  0  0  0
 31 49  1  0  0  0
 31 50  1  0  0  0
M  END
> <s_m_entry_id>
40901

> <s_m_entry_name>
dock_pv.18

> <s_m_Source_Path>
/home/csk/Desktop/cluster/DUD-E-result/tysy

> <s_m_Source_File>
dock_pv.maegz

> <i_m_Source_File_Index>
18

> <chembl_id>
CHEMBL225180

> <chembl_pref_name>
None

> <i_lp_mmshare_version>
53161

> <r_lp_tautomer_probability>
1

> <s_lp_Force_Field>
OPLS_2005

> <r_lp_Energy>
18.842705

> <b_lp_Chiralities_Consistent>
1

> <s_lp_Variant>
CHEMBL1952_lig131-1

> <s_i_glide_gridfile>
glide-grid_1syn

> <i_i_glide_lignum>
308

> <i_i_glide_rotatable_bonds>
11

> <r_i_docking_score>
-9.22352767746839

> <r_i_glide_ligand_efficiency>
-0.297533150886077

> <r_i_glide_ligand_efficiency_sa>
-0.934664882568696

> <r_i_glide_ligand_efficiency_ln>
-2.08018815844539

> <r_i_glide_gscore>
-9.22352767746839

> <r_i_glide_lipo>
-3.03041408511006

> <r_i_glide_hbond>
-0.765104648741279

> <r_i_glide_metal>
0

> <r_i_glide_rewards>
-1.53890902814918

> <r_i_glide_evdw>
-49.0458068847656

> <r_i_glide_ecoul>
-15.4920568466187

> <r_i_glide_erotb>
0.907516600872917

> <r_i_glide_esite>
-0.0205176451097065

> <r_i_glide_emodel>
-100.874289383935

> <r_i_glide_energy>
-64.5378637313843

> <r_i_glide_einternal>
4.87962961196899

> <i_i_glide_confnum>
250

> <i_i_glide_posenum>
375

> <r_i_glide_eff_state_penalty>
0

> <s_user_duplicate_titles>
CHEMBL1952_lig131,CHEMBL1952_lig90,373996

> <i_f3d_flags>
0

> <s_m_subgroup_title>
dock_pv

> <s_m_subgroupid>
dock_pv

> <b_m_subgroup_collapsed>
1

$$$$
CHEMBL1952_lig293
                    3D
 Schrodinger Suite 2021-1.
 41 45  0  0  1  0            999 V2000
   14.5564   16.1973   28.8681 N   0  0  0  0  0  0
   13.9374   17.2538   29.4837 C   0  0  0  0  0  0
   14.3219   17.2697   30.8494 C   0  0  0  0  0  0
   15.3101   16.2522   31.0110 C   0  0  0  0  0  0
   16.1807   15.8280   32.0428 C   0  0  0  0  0  0
   17.0370   14.7525   31.8086 C   0  0  0  0  0  0
   16.9920   14.0379   30.6290 C   0  0  0  0  0  0
   16.1473   14.4071   29.5910 C   0  0  0  0  0  0
   15.3630   15.5451   29.7714 C   0  0  0  0  0  0
   12.5920   19.0280   29.7408 C   0  0  0  0  0  0
   13.1035   18.1099   28.8902 N   0  0  0  0  0  0
   13.6717   18.2581   31.6270 C   0  0  0  0  0  0
   12.7935   19.1233   31.0728 N   0  0  0  0  0  0
   11.7920   20.0099   29.1910 N   0  0  0  0  0  0
   13.8689   18.4276   32.9887 N   0  0  0  0  0  0
   16.2898   16.6449   33.5910 S   0  0  0  0  0  0
   16.6616   14.3085   34.9831 C   0  0  0  0  0  0
   15.7930   15.3632   34.7040 C   0  0  0  0  0  0
   14.5088   15.3765   35.2374 C   0  0  0  0  0  0
   14.0474   14.2979   35.9910 C   0  0  0  0  0  0
   14.8607   13.1510   36.1723 C   0  0  0  0  0  0
   14.3813   11.9852   36.8197 C   0  0  0  0  0  0
   15.1857   10.8512   36.9119 C   0  0  0  0  0  0
   16.4760   10.8546   36.3910 C   0  0  0  0  0  0
   16.9917   11.9965   35.7853 C   0  0  0  0  0  0
   16.1920   13.1581   35.6564 C   0  0  0  0  0  0
   14.4256   15.9418   27.8994 H   0  0  0  0  0  0
   17.7608   14.4452   32.5434 H   0  0  0  0  0  0
   17.6481   13.1879   30.5061 H   0  0  0  0  0  0
   16.1409   13.8494   28.6702 H   0  0  0  0  0  0
   11.3221   19.7587   28.3275 H   0  0  0  0  0  0
   11.1776   20.3976   29.8951 H   0  0  0  0  0  0
   14.5736   17.8672   33.4472 H   0  0  0  0  0  0
   13.3920   19.1879   33.4599 H   0  0  0  0  0  0
   17.6755   14.3143   34.6150 H   0  0  0  0  0  0
   13.8478   16.2074   35.0384 H   0  0  0  0  0  0
   13.0396   14.3029   36.3798 H   0  0  0  0  0  0
   13.3752   11.9706   37.2129 H   0  0  0  0  0  0
   14.8019    9.9600   37.3861 H   0  0  0  0  0  0
   17.0899    9.9693   36.4608 H   0  0  0  0  0  0
   17.9960   11.9921   35.3850 H   0  0  0  0  0  0
  1  2  1  0  0  0
  1  9  1  0  0  0
  1 27  1  0  0  0
  2  3  1  0  0  0
  2 11  2  0  0  0
  3  4  1  0  0  0
  3 12  2  0  0  0
  4  5  1  0  0  0
  4  9  2  0  0  0
  5  6  2  0  0  0
  5 16  1  0  0  0
  6  7  1  0  0  0
  6 28  1  0  0  0
  7  8  2  0  0  0
  7 29  1  0  0  0
  8  9  1  0  0  0
  8 30  1  0  0  0
 10 11  1  0  0  0
 10 13  2  0  0  0
 10 14  1  0  0  0
 12 13  1  0  0  0
 12 15  1  0  0  0
 14 31  1  0  0  0
 14 32  1  0  0  0
 15 33  1  0  0  0
 15 34  1  0  0  0
 16 18  1  0  0  0
 17 18  1  0  0  0
 17 26  2  0  0  0
 17 35  1  0  0  0
 18 19  2  0  0  0
 19 20  1  0  0  0
 19 36  1  0  0  0
 20 21  2  0  0  0
 20 37  1  0  0  0
 21 22  1  0  0  0
 21 26  1  0  0  0
 22 23  2  0  0  0
 22 38  1  0  0  0
 23 24  1  0  0  0
 23 39  1  0  0  0
 24 25  2  0  0  0
 24 40  1  0  0  0
 25 26  1  0  0  0
 25 41  1  0  0  0
M  END
> <s_m_entry_id>
40902

> <s_m_entry_name>
dock_pv.19

> <s_m_Source_Path>
/home/csk/Desktop/cluster/DUD-E-result/tysy

> <s_m_Source_File>
dock_pv.maegz

> <i_m_Source_File_Index>
19

> <chembl_id>
CHEMBL4060383

> <chembl_pref_name>
None

> <i_lp_mmshare_version>
53161

> <r_lp_tautomer_probability>
1

> <s_lp_Force_Field>
OPLS_2005

> <r_lp_Energy>
14.958248

> <b_lp_Chiralities_Consistent>
1

> <s_lp_Variant>
CHEMBL1952_lig293-1

> <s_i_glide_gridfile>
glide-grid_1syn

> <i_i_glide_lignum>
563

> <i_i_glide_rotatable_bonds>
2

> <r_i_docking_score>
-9.20812383586324

> <r_i_glide_ligand_efficiency>
-0.354158609071663

> <r_i_glide_ligand_efficiency_sa>
-1.04919348582797

> <r_i_glide_ligand_efficiency_ln>
-2.16249766853379

> <r_i_glide_gscore>
-9.20812383586324

> <r_i_glide_lipo>
-4.65225585299628

> <r_i_glide_hbond>
-0.295395084261773

> <r_i_glide_metal>
0

> <r_i_glide_rewards>
-1.45982601454424

> <r_i_glide_evdw>
-42.0552749633789

> <r_i_glide_ecoul>
-6.14628505706787

> <r_i_glide_erotb>
0.299691763578814

> <r_i_glide_esite>
-0.0756321409106422

> <r_i_glide_emodel>
-76.4040248237943

> <r_i_glide_energy>
-48.2015600204468

> <r_i_glide_einternal>
0.906292080879211

> <i_i_glide_confnum>
8

> <i_i_glide_posenum>
132

> <r_i_glide_eff_state_penalty>
0

> <s_user_duplicate_titles>
CHEMBL1952_lig293

> <i_f3d_flags>
0

> <s_m_subgroup_title>
dock_pv

> <s_m_subgroupid>
dock_pv

> <b_m_subgroup_collapsed>
1

$$$$
CHEMBL1952_lig377
                    3D
 Schrodinger Suite 2021-1.
 44 47  0  0  1  0            999 V2000
   12.9159   18.6270   31.8071 N   0  0  0  0  0  0
   14.5291   17.0353   31.6256 C   0  0  0  0  0  0
   13.0047   18.2873   30.5779 C   0  0  0  0  0  0
   13.8465   17.8566   32.4860 C   0  0  0  0  0  0
   15.5321   16.1109   31.9926 C   0  0  0  0  0  0
   14.0400   17.2585   30.3564 C   0  0  0  0  0  0
   15.8514   16.0703   33.4035 C   0  0  0  0  0  0
   16.8917   15.2683   33.9282 N   0  0  0  0  0  0
   14.5839   16.5028   29.3177 C   0  0  0  0  0  0
   15.1203   16.9060   34.2827 C   0  0  0  0  0  0
   16.0581   15.3336   30.8959 C   0  0  0  0  0  0
   14.1379   17.7978   33.8403 C   0  0  0  0  0  0
   16.6187   14.5438   35.1791 C   0  0  0  0  0  0
   12.1920   18.7975   29.5879 N   0  0  0  0  0  0
   15.5788   15.5563   29.5915 C   0  0  0  0  0  0
   17.8744   10.3816   35.2964 N   0  0  0  0  0  0
   17.0973   13.0890   35.1921 C   0  0  0  0  0  0
   18.1847   15.9444   33.8371 C   0  0  0  0  0  0
   16.8009   10.8334   35.9909 C   0  0  0  0  0  0
   18.5574   11.2799   34.5445 C   0  0  0  0  0  0
   17.0880   14.2302   31.1051 C   0  0  0  0  0  0
   12.6270   19.0631   28.2283 C   0  0  0  0  0  0
   16.3917   12.1678   35.9761 C   0  0  0  0  0  0
   18.1950   12.6251   34.4486 C   0  0  0  0  0  0
   14.2405   16.6069   28.3009 H   0  0  0  0  0  0
   15.3397   16.8904   35.3391 H   0  0  0  0  0  0
   13.6174   18.4328   34.5430 H   0  0  0  0  0  0
   15.5434   14.5400   35.3664 H   0  0  0  0  0  0
   17.0753   15.0580   36.0260 H   0  0  0  0  0  0
   11.4116   19.3709   29.8875 H   0  0  0  0  0  0
   15.9681   14.9681   28.7727 H   0  0  0  0  0  0
   18.3894   16.2104   32.8036 H   0  0  0  0  0  0
   18.1920   16.8808   34.3908 H   0  0  0  0  0  0
   19.0074   15.3364   34.2105 H   0  0  0  0  0  0
   16.2688   10.1029   36.5805 H   0  0  0  0  0  0
   19.3921   10.8950   33.9807 H   0  0  0  0  0  0
   17.1638   13.5852   30.2301 H   0  0  0  0  0  0
   18.0781   14.6420   31.2935 H   0  0  0  0  0  0
   16.8118   13.5812   31.9345 H   0  0  0  0  0  0
   11.7922   19.4455   27.6452 H   0  0  0  0  0  0
   13.3949   19.8285   28.2213 H   0  0  0  0  0  0
   12.9984   18.1775   27.7195 H   0  0  0  0  0  0
   15.5380   12.4788   36.5601 H   0  0  0  0  0  0
   18.7686   13.2713   33.8028 H   0  0  0  0  0  0
  1  3  2  0  0  0
  1  4  1  0  0  0
  2  4  1  0  0  0
  2  5  1  0  0  0
  2  6  2  0  0  0
  3  6  1  0  0  0
  3 14  1  0  0  0
  4 12  2  0  0  0
  5 11  2  0  0  0
  5  7  1  0  0  0
  6  9  1  0  0  0
  7 10  2  0  0  0
  7  8  1  0  0  0
  8 13  1  0  0  0
  8 18  1  0  0  0
  9 15  2  0  0  0
  9 25  1  0  0  0
 10 12  1  0  0  0
 10 26  1  0  0  0
 11 21  1  0  0  0
 11 15  1  0  0  0
 12 27  1  0  0  0
 13 17  1  0  0  0
 13 28  1  0  0  0
 13 29  1  0  0  0
 14 22  1  0  0  0
 14 30  1  0  0  0
 15 31  1  0  0  0
 16 20  2  0  0  0
 16 19  1  0  0  0
 17 23  1  0  0  0
 17 24  2  0  0  0
 18 32  1  0  0  0
 18 33  1  0  0  0
 18 34  1  0  0  0
 19 23  2  0  0  0
 19 35  1  0  0  0
 20 24  1  0  0  0
 20 36  1  0  0  0
 21 37  1  0  0  0
 21 38  1  0  0  0
 21 39  1  0  0  0
 22 40  1  0  0  0
 22 41  1  0  0  0
 22 42  1  0  0  0
 23 43  1  0  0  0
 24 44  1  0  0  0
M  END
> <s_m_entry_id>
40903

> <s_m_entry_name>
dock_pv.20

> <s_m_Source_Path>
/home/csk/Desktop/cluster/DUD-E-result/tysy

> <s_m_Source_File>
dock_pv.maegz

> <i_m_Source_File_Index>
20

> <chembl_id>
CHEMBL59203

> <chembl_pref_name>
None

> <i_lp_mmshare_version>
53161

> <r_lp_tautomer_probability>
1

> <s_lp_Force_Field>
OPLS_2005

> <r_lp_Energy>
50.022063

> <b_lp_Chiralities_Consistent>
1

> <s_lp_Variant>
CHEMBL1952_lig377-1

> <s_i_glide_gridfile>
glide-grid_1syn

> <i_i_glide_lignum>
751

> <i_i_glide_rotatable_bonds>
4

> <r_i_docking_score>
-9.17481988034645

> <r_i_glide_ligand_efficiency>
-0.382284161681102

> <r_i_glide_ligand_efficiency_sa>
-1.10269833467165

> <r_i_glide_ligand_efficiency_ln>
-2.19595540241816

> <r_i_glide_gscore>
-9.17481988034645

> <r_i_glide_lipo>
-4.35043940989501

> <r_i_glide_hbond>
-0.319515501147819

> <r_i_glide_metal>
0

> <r_i_glide_rewards>
-2.12833655161222

> <r_i_glide_evdw>
-47.333927154541

> <r_i_glide_ecoul>
-3.50217199325562

> <r_i_glide_erotb>
0.557880407752864

> <r_i_glide_esite>
-0.0423866687288754

> <r_i_glide_emodel>
-70.6990585227102

> <r_i_glide_energy>
-50.8360991477966

> <r_i_glide_einternal>
14.6715793609619

> <i_i_glide_confnum>
5

> <i_i_glide_posenum>
396

> <r_i_glide_eff_state_penalty>
0

> <s_user_duplicate_titles>
CHEMBL1952_lig377,87679

> <i_f3d_flags>
0

> <s_m_subgroup_title>
dock_pv

> <s_m_subgroupid>
dock_pv

> <b_m_subgroup_collapsed>
1

$$$$
CHEMBL1952_lig160
                    3D
 Schrodinger Suite 2021-1.
 36 39  0  0  1  0            999 V2000
   13.5512   19.0279   32.9424 N   0  0  0  0  0  0
   12.8342   18.9788   31.7754 C   0  0  0  0  0  0
   13.0787   18.0622   30.8998 N   0  0  0  0  0  0
   14.5869   18.2331   33.3288 C   0  0  0  0  0  0
   14.8815   17.2046   32.3341 C   0  0  0  0  0  0
   14.0972   17.1884   31.1801 C   0  0  0  0  0  0
   14.5864   15.9364   30.0954 S   0  0  0  0  0  0
   15.8750   15.4287   31.1666 C   0  0  0  0  0  0
   15.8817   16.2053   32.3352 C   0  0  0  0  0  0
   16.8083   14.3058   30.7663 C   0  0  0  0  0  0
   17.1231   16.0156   33.5906 S   0  0  0  0  0  0
   11.8376   19.9529   31.5909 N   0  0  0  0  0  0
   15.1362   18.4649   34.3911 O   0  0  0  0  0  0
   16.3811   14.8247   34.6594 C   0  0  0  0  0  0
   16.9920   13.5813   34.8171 C   0  0  0  0  0  0
   14.5842   14.1738   36.1409 C   0  0  0  0  0  0
   15.1999   15.1231   35.3335 C   0  0  0  0  0  0
   15.1336   12.8751   36.2621 C   0  0  0  0  0  0
   16.3589   12.5736   35.5911 C   0  0  0  0  0  0
   16.8846   11.2606   35.6778 C   0  0  0  0  0  0
   16.2012   10.2798   36.3910 C   0  0  0  0  0  0
   15.0201   10.5784   37.0607 C   0  0  0  0  0  0
   14.4866   11.8622   37.0121 C   0  0  0  0  0  0
   13.3223   19.7368   33.6361 H   0  0  0  0  0  0
   17.1546   13.7328   31.6263 H   0  0  0  0  0  0
   16.3376   13.5955   30.0851 H   0  0  0  0  0  0
   17.6978   14.6887   30.2666 H   0  0  0  0  0  0
   11.1474   19.8274   30.8574 H   0  0  0  0  0  0
   11.4590   20.4263   32.3985 H   0  0  0  0  0  0
   17.9110   13.3522   34.2939 H   0  0  0  0  0  0
   13.6634   14.4140   36.6520 H   0  0  0  0  0  0
   14.7484   16.0979   35.2390 H   0  0  0  0  0  0
   17.8032   11.0215   35.1606 H   0  0  0  0  0  0
   16.5910    9.2766   36.4222 H   0  0  0  0  0  0
   14.5090    9.8055   37.6147 H   0  0  0  0  0  0
   13.5611   12.0846   37.5230 H   0  0  0  0  0  0
  1  2  1  0  0  0
  1  4  1  0  0  0
  1 24  1  0  0  0
  2 12  1  0  0  0
  2  3  2  0  0  0
  3  6  1  0  0  0
  4 13  2  0  0  0
  4  5  1  0  0  0
  5  9  1  0  0  0
  5  6  2  0  0  0
  6  7  1  0  0  0
  7  8  1  0  0  0
  8  9  2  0  0  0
  8 10  1  0  0  0
  9 11  1  0  0  0
 10 25  1  0  0  0
 10 26  1  0  0  0
 10 27  1  0  0  0
 11 14  1  0  0  0
 12 28  1  0  0  0
 12 29  1  0  0  0
 14 15  2  0  0  0
 14 17  1  0  0  0
 15 19  1  0  0  0
 15 30  1  0  0  0
 16 18  1  0  0  0
 16 17  2  0  0  0
 16 31  1  0  0  0
 17 32  1  0  0  0
 18 19  1  0  0  0
 18 23  2  0  0  0
 19 20  2  0  0  0
 20 21  1  0  0  0
 20 33  1  0  0  0
 21 22  2  0  0  0
 21 34  1  0  0  0
 22 23  1  0  0  0
 22 35  1  0  0  0
 23 36  1  0  0  0
M  END
> <s_m_entry_id>
40904

> <s_m_entry_name>
dock_pv.21

> <s_m_Source_Path>
/home/csk/Desktop/cluster/DUD-E-result/tysy

> <s_m_Source_File>
dock_pv.maegz

> <i_m_Source_File_Index>
21

> <chembl_id>
CHEMBL495124

> <chembl_pref_name>
None

> <i_lp_mmshare_version>
53161

> <r_lp_tautomer_probability>
1

> <s_lp_Force_Field>
OPLS_2005

> <r_lp_Energy>
20.454575

> <b_lp_Chiralities_Consistent>
1

> <s_lp_Variant>
CHEMBL1952_lig160-1

> <s_i_glide_gridfile>
glide-grid_1syn

> <i_i_glide_lignum>
337

> <i_i_glide_rotatable_bonds>
2

> <r_i_docking_score>
-9.1149235826171

> <r_i_glide_ligand_efficiency>
-0.396301025331178

> <r_i_glide_ligand_efficiency_sa>
-1.12702739884273

> <r_i_glide_ligand_efficiency_ln>
-2.20407117183434

> <r_i_glide_gscore>
-9.1149235826171

> <r_i_glide_lipo>
-4.26360607152354

> <r_i_glide_hbond>
-0.456

> <r_i_glide_metal>
0

> <r_i_glide_rewards>
-1.58325421731119

> <r_i_glide_evdw>
-45.2443809509277

> <r_i_glide_ecoul>
-5.75040340423584

> <r_i_glide_erotb>
0.32850436168299

> <r_i_glide_esite>
-0.0157880972835953

> <r_i_glide_emodel>
-79.5159295427365

> <r_i_glide_energy>
-50.9947843551636

> <r_i_glide_einternal>
0.807442247867584

> <i_i_glide_confnum>
8

> <i_i_glide_posenum>
255

> <r_i_glide_eff_state_penalty>
0

> <s_user_duplicate_titles>
CHEMBL1952_lig160,469530

> <i_f3d_flags>
0

> <s_m_subgroup_title>
dock_pv

> <s_m_subgroupid>
dock_pv

> <b_m_subgroup_collapsed>
1

$$$$
CHEMBL1952_lig291
                    3D
 Schrodinger Suite 2021-1.
 40 44  0  0  1  0            999 V2000
   13.5034   19.0280   33.0922 N   0  0  0  0  0  0
   12.7381   19.2464   31.9665 C   0  0  0  0  0  0
   12.8773   18.5033   30.9231 N   0  0  0  0  0  0
   14.4522   18.0621   33.2982 C   0  0  0  0  0  0
   14.6365   17.2616   32.0883 C   0  0  0  0  0  0
   13.8249   17.5307   30.9983 C   0  0  0  0  0  0
   14.0943   16.6600   29.9864 N   0  0  0  0  0  0
   15.4965   16.1604   31.7132 C   0  0  0  0  0  0
   15.0746   15.7754   30.3877 C   0  0  0  0  0  0
   15.6162   14.6760   29.7149 C   0  0  0  0  0  0
   16.5929   13.9505   30.3911 C   0  0  0  0  0  0
   17.0872   14.3372   31.6217 C   0  0  0  0  0  0
   16.5587   15.4289   32.3012 C   0  0  0  0  0  0
   17.2683   15.8280   33.8619 S   0  0  0  0  0  0
   16.7208   14.4761   34.8532 C   0  0  0  0  0  0
   14.9924   17.9577   34.3911 O   0  0  0  0  0  0
   11.7976   20.2896   31.9909 N   0  0  0  0  0  0
   17.4535   13.2929   34.8766 C   0  0  0  0  0  0
   16.9909   12.1907   35.5904 C   0  0  0  0  0  0
   15.5386   14.5944   35.5792 C   0  0  0  0  0  0
   15.0365   13.4901   36.3106 C   0  0  0  0  0  0
   15.7701   12.2628   36.3076 C   0  0  0  0  0  0
   15.2545   11.1505   37.0172 C   0  0  0  0  0  0
   14.0528   11.2554   37.7130 C   0  0  0  0  0  0
   13.3435   12.4518   37.7235 C   0  0  0  0  0  0
   13.8207   13.5633   37.0331 C   0  0  0  0  0  0
   13.3561   19.6527   33.8820 H   0  0  0  0  0  0
   13.6025   16.7049   29.1077 H   0  0  0  0  0  0
   15.2689   14.3669   28.7406 H   0  0  0  0  0  0
   16.9919   13.0355   29.9896 H   0  0  0  0  0  0
   17.8829   13.7530   32.0636 H   0  0  0  0  0  0
   11.0741   20.2808   31.2824 H   0  0  0  0  0  0
   11.4815   20.6371   32.8845 H   0  0  0  0  0  0
   18.3778   13.2164   34.3223 H   0  0  0  0  0  0
   17.5582   11.2707   35.5909 H   0  0  0  0  0  0
   14.9830   15.5214   35.5661 H   0  0  0  0  0  0
   15.8017   10.2189   37.0149 H   0  0  0  0  0  0
   13.6673   10.4011   38.2491 H   0  0  0  0  0  0
   12.4118   12.5176   38.2666 H   0  0  0  0  0  0
   13.2608   14.4877   37.0374 H   0  0  0  0  0  0
  1  2  1  0  0  0
  1  4  1  0  0  0
  1 27  1  0  0  0
  2  3  2  0  0  0
  2 17  1  0  0  0
  3  6  1  0  0  0
  4  5  1  0  0  0
  4 16  2  0  0  0
  5  6  2  0  0  0
  5  8  1  0  0  0
  6  7  1  0  0  0
  7  9  1  0  0  0
  7 28  1  0  0  0
  8  9  2  0  0  0
  8 13  1  0  0  0
  9 10  1  0  0  0
 10 11  2  0  0  0
 10 29  1  0  0  0
 11 12  1  0  0  0
 11 30  1  0  0  0
 12 13  2  0  0  0
 12 31  1  0  0  0
 13 14  1  0  0  0
 14 15  1  0  0  0
 15 18  2  0  0  0
 15 20  1  0  0  0
 17 32  1  0  0  0
 17 33  1  0  0  0
 18 19  1  0  0  0
 18 34  1  0  0  0
 19 22  2  0  0  0
 19 35  1  0  0  0
 20 21  2  0  0  0
 20 36  1  0  0  0
 21 22  1  0  0  0
 21 26  1  0  0  0
 22 23  1  0  0  0
 23 24  2  0  0  0
 23 37  1  0  0  0
 24 25  1  0  0  0
 24 38  1  0  0  0
 25 26  2  0  0  0
 25 39  1  0  0  0
 26 40  1  0  0  0
M  END
> <s_m_entry_id>
40905

> <s_m_entry_name>
dock_pv.22

> <s_m_Source_Path>
/home/csk/Desktop/cluster/DUD-E-result/tysy

> <s_m_Source_File>
dock_pv.maegz

> <i_m_Source_File_Index>
22

> <chembl_id>
CHEMBL3099582

> <chembl_pref_name>
None

> <i_lp_mmshare_version>
53161

> <r_lp_tautomer_probability>
1

> <s_lp_Force_Field>
OPLS_2005

> <r_lp_Energy>
28.655716

> <b_lp_Chiralities_Consistent>
1

> <s_lp_Variant>
CHEMBL1952_lig291-1

> <s_i_glide_gridfile>
glide-grid_1syn

> <i_i_glide_lignum>
561

> <i_i_glide_rotatable_bonds>
2

> <r_i_docking_score>
-9.0930387395154

> <r_i_glide_ligand_efficiency>
-0.349732259212131

> <r_i_glide_ligand_efficiency_sa>
-1.03608044178595

> <r_i_glide_ligand_efficiency_ln>
-2.1354703112815

> <r_i_glide_gscore>
-9.0930387395154

> <r_i_glide_lipo>
-4.22948295086467

> <r_i_glide_hbond>
-0.456

> <r_i_glide_metal>
0

> <r_i_glide_rewards>
-1.62340425858852

> <r_i_glide_evdw>
-48.4264030456543

> <r_i_glide_ecoul>
-4.24621057510376

> <r_i_glide_erotb>
0.298226332454555

> <r_i_glide_esite>
-0.0241261239684831

> <r_i_glide_emodel>
-81.5352609281052

> <r_i_glide_energy>
-52.6726136207581

> <r_i_glide_einternal>
0.716170132160187

> <i_i_glide_confnum>
16

> <i_i_glide_posenum>
353

> <r_i_glide_eff_state_penalty>
0

> <s_user_duplicate_titles>
CHEMBL1952_lig291

> <i_f3d_flags>
0

> <s_m_subgroup_title>
dock_pv

> <s_m_subgroupid>
dock_pv

> <b_m_subgroup_collapsed>
1

$$$$
CHEMBL1952_lig385
                    3D
 Schrodinger Suite 2021-1.
 62 65  0  0  1  0            999 V2000
   14.3680   17.3432   31.9179 C   0  0  0  0  0  0
   18.6730   14.7803   33.6203 S   0  0  0  0  0  0
   14.0323   17.9074   33.2350 C   0  0  0  0  0  0
   13.7003   17.8556   30.8369 C   0  0  0  0  0  0
   15.3922   16.2686   31.7134 C   0  0  0  0  0  0
   12.7780   18.8580   30.9316 N   0  0  0  0  0  0
   13.1848   18.9548   33.1872 N   0  0  0  0  0  0
   12.5753   19.4217   32.0643 C   0  0  0  0  0  0
   17.4049   15.0792   32.3997 C   0  0  0  0  0  0
   13.9961   12.2485   38.1017 C   0  0  0  0  0  0
   16.4086   16.0226   32.6495 C   0  0  0  0  0  0
   18.2070   13.2377   34.3505 N   0  0  0  0  0  0
   13.1343   13.2367   38.4225 N   0  0  0  0  0  0
   12.8870   13.3846   40.9390 C   0  0  0  0  0  0
   15.4059   15.5509   30.4988 C   0  0  0  0  0  0
   12.1923   13.2625   39.5608 C   0  0  2  0  0  0
   19.9256   14.5356   32.9031 O   0  0  0  0  0  0
   18.5945   15.8228   34.6477 O   0  0  0  0  0  0
   14.4177   17.5054   34.3288 O   0  0  0  0  0  0
   14.9934   12.5276   36.9925 C   0  0  0  0  0  0
   13.9314   17.3061   29.4308 C   0  0  0  0  0  0
    9.0787   13.4278   38.7892 C   0  0  0  0  0  0
   14.0298   11.1764   38.7117 O   0  0  0  0  0  0
   12.5989   12.7230   41.9153 O   0  0  0  0  0  0
   17.4080   14.3690   31.2025 C   0  0  0  0  0  0
   14.3021   15.8070   29.4791 C   0  0  0  0  0  0
    9.0002   13.9359   39.9064 O   0  0  0  0  0  0
   16.4186   14.6172   30.2569 C   0  0  0  0  0  0
   11.1449   12.1045   39.4852 C   0  0  0  0  0  0
   17.0977   13.0415   35.1912 C   0  0  0  0  0  0
   15.2317   13.8288   36.5226 C   0  0  0  0  0  0
   15.7845   11.4819   36.4921 C   0  0  0  0  0  0
   10.0524   12.3108   38.4167 C   0  0  0  0  0  0
   13.7919   14.4060   40.9127 O   0  0  0  0  0  0
    8.3195   13.8279   37.7361 O   0  0  0  0  0  0
   16.8263   11.7392   35.6036 C   0  0  0  0  0  0
   16.2725   14.0807   35.6345 C   0  0  0  0  0  0
   11.6082   20.5721   32.1823 C   0  0  0  0  0  0
   11.6598   14.2088   39.4786 H   0  0  0  0  0  0
   16.4623   16.5893   33.5628 H   0  0  0  0  0  0
   18.6695   12.4248   33.9690 H   0  0  0  0  0  0
   13.0942   14.0319   37.8027 H   0  0  0  0  0  0
   12.9926   19.4129   34.0750 H   0  0  0  0  0  0
   14.7312   17.8848   28.9702 H   0  0  0  0  0  0
   13.0485   17.4542   28.8068 H   0  0  0  0  0  0
   18.1809   13.6371   31.0009 H   0  0  0  0  0  0
   13.4303   15.2248   29.7851 H   0  0  0  0  0  0
   14.5902   15.4481   28.4886 H   0  0  0  0  0  0
   16.4297   14.0631   29.3298 H   0  0  0  0  0  0
   10.6393   11.9828   40.4442 H   0  0  0  0  0  0
   11.6300   11.1438   39.3104 H   0  0  0  0  0  0
   14.6633   14.6772   36.8744 H   0  0  0  0  0  0
   15.6309   10.4647   36.8263 H   0  0  0  0  0  0
   10.5057   12.5254   37.4493 H   0  0  0  0  0  0
    9.4739   11.3951   38.2952 H   0  0  0  0  0  0
   13.9076   14.7305   40.0170 H   0  0  0  0  0  0
    7.7924   14.5921   37.9916 H   0  0  0  0  0  0
   17.4478   10.9238   35.2648 H   0  0  0  0  0  0
   16.4342   15.1016   35.3368 H   0  0  0  0  0  0
   10.5949   20.2269   31.9990 H   0  0  0  0  0  0
   11.6304   21.0305   33.1680 H   0  0  0  0  0  0
   11.8332   21.3446   31.4471 H   0  0  0  0  0  0
  1  3  1  0  0  0
  1  5  1  0  0  0
  1  4  2  0  0  0
  2  9  1  0  0  0
  2 12  1  0  0  0
  2 17  2  0  0  0
  2 18  2  0  0  0
  3 19  2  0  0  0
  3  7  1  0  0  0
  4 21  1  0  0  0
  4  6  1  0  0  0
  5 11  2  0  0  0
  5 15  1  0  0  0
  6  8  2  0  0  0
  7  8  1  0  0  0
  7 43  1  0  0  0
  8 38  1  0  0  0
  9 11  1  0  0  0
  9 25  2  0  0  0
 10 20  1  0  0  0
 10 13  1  0  0  0
 10 23  2  0  0  0
 11 40  1  0  0  0
 12 30  1  0  0  0
 12 41  1  0  0  0
 13 16  1  0  0  0
 13 42  1  0  0  0
 14 16  1  0  0  0
 14 24  2  0  0  0
 14 34  1  0  0  0
 15 26  1  0  0  0
 15 28  2  0  0  0
 16 29  1  0  0  0
 16 39  1  0  0  0
 20 31  2  0  0  0
 20 32  1  0  0  0
 21 26  1  0  0  0
 21 44  1  0  0  0
 21 45  1  0  0  0
 22 33  1  0  0  0
 22 27  2  0  0  0
 22 35  1  0  0  0
 25 28  1  0  0  0
 25 46  1  0  0  0
 26 47  1  0  0  0
 26 48  1  0  0  0
 28 49  1  0  0  0
 29 33  1  0  0  0
 29 50  1  0  0  0
 29 51  1  0  0  0
 30 36  1  0  0  0
 30 37  2  0  0  0
 31 37  1  0  0  0
 31 52  1  0  0  0
 32 36  2  0  0  0
 32 53  1  0  0  0
 33 54  1  0  0  0
 33 55  1  0  0  0
 34 56  1  0  0  0
 35 57  1  0  0  0
 36 58  1  0  0  0
 37 59  1  0  0  0
 38 60  1  0  0  0
 38 61  1  0  0  0
 38 62  1  0  0  0
M  END
> <s_m_entry_id>
40906

> <s_m_entry_name>
dock_pv.23

> <s_m_Source_Path>
/home/csk/Desktop/cluster/DUD-E-result/tysy

> <s_m_Source_File>
dock_pv.maegz

> <i_m_Source_File_Index>
23

> <chembl_id>
CHEMBL324932

> <chembl_pref_name>
None

> <i_lp_mmshare_version>
53161

> <r_lp_tautomer_probability>
0.839158042097895

> <s_lp_Force_Field>
OPLS_2005

> <r_lp_Energy>
24.456513

> <b_lp_Chiralities_Consistent>
1

> <s_lp_Variant>
CHEMBL1952_lig385-1

> <s_i_glide_gridfile>
glide-grid_1syn

> <i_i_glide_lignum>
764

> <i_i_glide_rotatable_bonds>
12

> <r_i_docking_score>
-9.07487633336312

> <r_i_glide_ligand_efficiency>
-0.238812535088503

> <r_i_glide_ligand_efficiency_sa>
-0.802881868829345

> <r_i_glide_ligand_efficiency_ln>
-1.95681029328812

> <r_i_glide_gscore>
-9.07487633336312

> <r_i_glide_lipo>
-4.01413241453152

> <r_i_glide_hbond>
-0.335232775345275

> <r_i_glide_metal>
0

> <r_i_glide_rewards>
-0.497768461755118

> <r_i_glide_evdw>
-64.5927581787109

> <r_i_glide_ecoul>
-10.250599861145

> <r_i_glide_erotb>
0.707592162711153

> <r_i_glide_esite>
-0.168106956335065

> <r_i_glide_emodel>
-116.671544114464

> <r_i_glide_energy>
-74.843358039856

> <r_i_glide_einternal>
4.22217893600464

> <i_i_glide_confnum>
185

> <i_i_glide_posenum>
283

> <r_i_glide_eff_state_penalty>
0

> <s_user_duplicate_titles>
CHEMBL1952_lig385,CHEMBL1952_lig385,191921

> <i_f3d_flags>
0

> <s_m_subgroup_title>
dock_pv

> <s_m_subgroupid>
dock_pv

> <b_m_subgroup_collapsed>
1

$$$$
CHEMBL1952_lig417
                    3D
 Schrodinger Suite 2021-1.
 47 50  0  0  1  0            999 V2000
   14.9712   17.1279   32.1105 C   0  0  0  0  0  0
   14.7116   18.1799   33.1844 C   0  0  0  0  0  0
   14.1472   12.0279   37.6054 S   0  0  0  0  0  0
   13.7024   19.0271   32.8819 N   0  0  0  0  0  0
   15.9589   16.1132   32.2029 C   0  0  0  0  0  0
   13.1878   18.2084   30.7963 N   0  0  0  0  0  0
   14.1863   17.2336   30.9507 C   0  0  0  0  0  0
   12.9905   19.0659   31.7244 C   0  0  0  0  0  0
   17.0779   15.9687   33.5910 S   0  0  0  0  0  0
   14.9946   13.1313   36.4769 C   0  0  0  0  0  0
   14.9921   10.8443   37.8168 O   0  0  0  0  0  0
   13.6884   12.8397   38.7401 O   0  0  0  0  0  0
   12.6928   11.4916   36.7094 C   0  0  0  0  0  0
   16.1273   15.2277   31.1160 C   0  0  0  0  0  0
   15.3154   18.3458   34.2342 O   0  0  0  0  0  0
   14.3753   16.3614   29.8866 C   0  0  0  0  0  0
   15.3382   15.3626   29.9696 C   0  0  0  0  0  0
   16.2689   12.8254   35.9931 C   0  0  0  0  0  0
   14.3600   14.3116   36.0873 C   0  0  0  0  0  0
   16.2560   14.8695   34.7080 C   0  0  0  0  0  0
   16.9076   13.7046   35.1193 C   0  0  0  0  0  0
   14.9864   15.1747   35.1970 C   0  0  0  0  0  0
   11.9513   20.1478   31.5769 C   0  0  0  0  0  0
   17.1489   14.0941   31.1443 C   0  0  0  0  0  0
   11.5303   12.2666   36.7385 C   0  0  0  0  0  0
   12.7384   10.3135   35.9613 C   0  0  0  0  0  0
   11.6299    9.9260   35.2145 C   0  0  0  0  0  0
   10.4204   11.8722   35.9956 C   0  0  0  0  0  0
   10.4772   10.7067   35.2325 C   0  0  0  0  0  0
   13.4884   19.6979   33.6157 H   0  0  0  0  0  0
   13.7812   16.4694   28.9923 H   0  0  0  0  0  0
   15.4722   14.6915   29.1326 H   0  0  0  0  0  0
   16.7724   11.9204   36.3013 H   0  0  0  0  0  0
   13.3829   14.5677   36.4673 H   0  0  0  0  0  0
   17.8972   13.4759   34.7502 H   0  0  0  0  0  0
   14.4780   16.0770   34.9044 H   0  0  0  0  0  0
   11.7916   20.3934   30.5273 H   0  0  0  0  0  0
   10.9977   19.8263   31.9958 H   0  0  0  0  0  0
   12.2563   21.0651   32.0826 H   0  0  0  0  0  0
   18.1642   14.4899   31.0929 H   0  0  0  0  0  0
   17.0611   13.5223   32.0678 H   0  0  0  0  0  0
   17.0047   13.3824   30.3302 H   0  0  0  0  0  0
   11.4906   13.1760   37.3198 H   0  0  0  0  0  0
   13.6361    9.7147   35.9335 H   0  0  0  0  0  0
   11.6672    9.0285   34.6151 H   0  0  0  0  0  0
    9.5234   12.4716   36.0009 H   0  0  0  0  0  0
    9.6203   10.4050   34.6480 H   0  0  0  0  0  0
  1  2  1  0  0  0
  1  5  1  0  0  0
  1  7  2  0  0  0
  2 15  2  0  0  0
  2  4  1  0  0  0
  3 10  1  0  0  0
  3 11  2  0  0  0
  3 12  2  0  0  0
  3 13  1  0  0  0
  4  8  1  0  0  0
  4 30  1  0  0  0
  5  9  1  0  0  0
  5 14  2  0  0  0
  6  7  1  0  0  0
  6  8  2  0  0  0
  7 16  1  0  0  0
  8 23  1  0  0  0
  9 20  1  0  0  0
 10 19  1  0  0  0
 10 18  2  0  0  0
 13 25  2  0  0  0
 13 26  1  0  0  0
 14 24  1  0  0  0
 14 17  1  0  0  0
 16 17  2  0  0  0
 16 31  1  0  0  0
 17 32  1  0  0  0
 18 21  1  0  0  0
 18 33  1  0  0  0
 19 22  2  0  0  0
 19 34  1  0  0  0
 20 21  2  0  0  0
 20 22  1  0  0  0
 21 35  1  0  0  0
 22 36  1  0  0  0
 23 37  1  0  0  0
 23 38  1  0  0  0
 23 39  1  0  0  0
 24 40  1  0  0  0
 24 41  1  0  0  0
 24 42  1  0  0  0
 25 28  1  0  0  0
 25 43  1  0  0  0
 26 27  2  0  0  0
 26 44  1  0  0  0
 27 29  1  0  0  0
 27 45  1  0  0  0
 28 29  2  0  0  0
 28 46  1  0  0  0
 29 47  1  0  0  0
M  END
> <s_m_entry_id>
40907

> <s_m_entry_name>
dock_pv.24

> <s_m_Source_Path>
/home/csk/Desktop/cluster/DUD-E-result/tysy

> <s_m_Source_File>
dock_pv.maegz

> <i_m_Source_File_Index>
24

> <chembl_id>
CHEMBL423282

> <chembl_pref_name>
None

> <i_lp_mmshare_version>
53161

> <r_lp_tautomer_probability>
0.883938

> <s_lp_Force_Field>
OPLS_2005

> <r_lp_Energy>
27.038129

> <b_lp_Chiralities_Consistent>
1

> <s_lp_Variant>
CHEMBL1952_lig417-1

> <s_i_glide_gridfile>
glide-grid_1syn

> <i_i_glide_lignum>
811

> <i_i_glide_rotatable_bonds>
4

> <r_i_docking_score>
-9.0703684209337

> <r_i_glide_ligand_efficiency>
-0.312771324859783

> <r_i_glide_ligand_efficiency_sa>
-0.960932602880183

> <r_i_glide_ligand_efficiency_ln>
-2.07688436369601

> <r_i_glide_gscore>
-9.0703684209337

> <r_i_glide_lipo>
-4.76897166349047

> <r_i_glide_hbond>
-0.16

> <r_i_glide_metal>
0

> <r_i_glide_rewards>
-1.14982847483086

> <r_i_glide_evdw>
-51.3244552612305

> <r_i_glide_ecoul>
-5.74018812179565

> <r_i_glide_erotb>
0.44388688853047

> <r_i_glide_esite>
-0.00820418981196569

> <r_i_glide_emodel>
-89.6465135715653

> <r_i_glide_energy>
-57.0646433830261

> <r_i_glide_einternal>
1.016805768013

> <i_i_glide_confnum>
17

> <i_i_glide_posenum>
347

> <r_i_glide_eff_state_penalty>
0

> <s_user_duplicate_titles>
CHEMBL1952_lig417,CHEMBL1952_lig417,273737

> <i_f3d_flags>
0

> <s_m_subgroup_title>
dock_pv

> <s_m_subgroupid>
dock_pv

> <b_m_subgroup_collapsed>
1

$$$$
CHEMBL1952_lig384
                    3D
 Schrodinger Suite 2021-1.
 61 64  0  0  1  0            999 V2000
   14.5586   17.2974   31.8986 C   0  0  0  0  0  0
   18.8614   14.7126   33.7044 S   0  0  0  0  0  0
   14.2781   17.9968   33.1630 C   0  0  0  0  0  0
   13.8370   17.7061   30.8074 C   0  0  0  0  0  0
   13.4140   19.0259   33.0473 N   0  0  0  0  0  0
   15.5837   16.2052   31.7531 C   0  0  0  0  0  0
   12.8807   18.6792   30.8591 N   0  0  0  0  0  0
   12.7149   19.3484   31.9340 C   0  0  0  0  0  0
   17.5800   15.0008   32.4927 C   0  0  0  0  0  0
   14.2223   11.3677   37.6795 C   0  0  0  0  0  0
   16.5925   15.9693   32.7053 C   0  0  0  0  0  0
   18.5566   13.0878   34.3450 N   0  0  0  0  0  0
   13.4756   12.2959   38.3093 N   0  0  0  0  0  0
   11.1952   13.0049   39.0935 C   0  0  0  0  0  0
   15.5855   15.4244   30.5776 C   0  0  0  0  0  0
   12.3604   11.9975   39.2254 C   0  0  2  0  0  0
   20.1334   14.6277   32.9851 O   0  0  0  0  0  0
   18.6865   15.6764   34.7910 O   0  0  0  0  0  0
   14.7321   17.7297   34.2708 O   0  0  0  0  0  0
   15.3439   11.8670   36.7899 C   0  0  0  0  0  0
   14.0443   17.0723   29.4354 C   0  0  0  0  0  0
   13.7924   12.9757   42.7937 C   0  0  0  0  0  0
   14.0357   10.1588   37.8309 O   0  0  0  0  0  0
   10.5910   13.4553   40.0447 O   0  0  0  0  0  0
   17.5821   14.2547   31.3200 C   0  0  0  0  0  0
   11.8018   20.4083   31.9912 N   0  0  0  0  0  0
   14.4541   15.5929   29.5705 C   0  0  0  0  0  0
   13.3745   13.8282   43.5710 O   0  0  0  0  0  0
   16.5914   14.4735   30.3724 C   0  0  0  0  0  0
   12.8783   11.8233   40.6846 C   0  0  0  0  0  0
   17.4783   12.7302   35.1711 C   0  0  0  0  0  0
   15.4410   13.2101   36.3916 C   0  0  0  0  0  0
   16.3226   10.9653   36.3500 C   0  0  0  0  0  0
   13.6136   13.0498   41.2780 C   0  0  0  0  0  0
   10.9338   13.2746   37.7815 O   0  0  0  0  0  0
   14.4571   11.8562   43.1910 O   0  0  0  0  0  0
   17.3830   11.3948   35.5574 C   0  0  0  0  0  0
   16.4992   13.6358   35.5918 C   0  0  0  0  0  0
   11.9220   11.0433   38.9292 H   0  0  0  0  0  0
   16.6542   16.5541   33.6077 H   0  0  0  0  0  0
   19.1129   12.3523   33.9287 H   0  0  0  0  0  0
   13.7073   13.2706   38.1920 H   0  0  0  0  0  0
   13.2593   19.5669   33.8931 H   0  0  0  0  0  0
   14.8183   17.6383   28.9184 H   0  0  0  0  0  0
   13.1431   17.1627   28.8272 H   0  0  0  0  0  0
   18.3455   13.5076   31.1454 H   0  0  0  0  0  0
   11.1524   20.5632   31.2330 H   0  0  0  0  0  0
   11.5827   20.8663   32.8638 H   0  0  0  0  0  0
   13.6017   15.0119   29.9304 H   0  0  0  0  0  0
   14.7196   15.1791   28.5957 H   0  0  0  0  0  0
   16.5892   13.8743   29.4719 H   0  0  0  0  0  0
   13.5564   10.9671   40.7129 H   0  0  0  0  0  0
   12.0477   11.5369   41.3310 H   0  0  0  0  0  0
   14.7093   13.9462   36.6884 H   0  0  0  0  0  0
   16.2783    9.9205   36.6250 H   0  0  0  0  0  0
   14.5919   13.1468   40.8170 H   0  0  0  0  0  0
   13.0710   13.9681   41.0528 H   0  0  0  0  0  0
   11.5088   12.7884   37.1876 H   0  0  0  0  0  0
   14.5974   11.8282   44.1508 H   0  0  0  0  0  0
   18.1300   10.6818   35.2384 H   0  0  0  0  0  0
   16.5314   14.6758   35.3083 H   0  0  0  0  0  0
  1  3  1  0  0  0
  1  6  1  0  0  0
  1  4  2  0  0  0
  2  9  1  0  0  0
  2 12  1  0  0  0
  2 17  2  0  0  0
  2 18  2  0  0  0
  3  5  1  0  0  0
  3 19  2  0  0  0
  4  7  1  0  0  0
  4 21  1  0  0  0
  5  8  1  0  0  0
  5 43  1  0  0  0
  6 11  2  0  0  0
  6 15  1  0  0  0
  7  8  2  0  0  0
  8 26  1  0  0  0
  9 11  1  0  0  0
  9 25  2  0  0  0
 10 20  1  0  0  0
 10 13  1  0  0  0
 10 23  2  0  0  0
 11 40  1  0  0  0
 12 31  1  0  0  0
 12 41  1  0  0  0
 13 16  1  0  0  0
 13 42  1  0  0  0
 14 16  1  0  0  0
 14 24  2  0  0  0
 14 35  1  0  0  0
 15 27  1  0  0  0
 15 29  2  0  0  0
 16 30  1  0  0  0
 16 39  1  0  0  0
 20 32  2  0  0  0
 20 33  1  0  0  0
 21 27  1  0  0  0
 21 44  1  0  0  0
 21 45  1  0  0  0
 22 34  1  0  0  0
 22 28  2  0  0  0
 22 36  1  0  0  0
 25 29  1  0  0  0
 25 46  1  0  0  0
 26 47  1  0  0  0
 26 48  1  0  0  0
 27 49  1  0  0  0
 27 50  1  0  0  0
 29 51  1  0  0  0
 30 34  1  0  0  0
 30 52  1  0  0  0
 30 53  1  0  0  0
 31 37  1  0  0  0
 31 38  2  0  0  0
 32 38  1  0  0  0
 32 54  1  0  0  0
 33 37  2  0  0  0
 33 55  1  0  0  0
 34 56  1  0  0  0
 34 57  1  0  0  0
 35 58  1  0  0  0
 36 59  1  0  0  0
 37 60  1  0  0  0
 38 61  1  0  0  0
M  END
> <s_m_entry_id>
40908

> <s_m_entry_name>
dock_pv.25

> <s_m_Source_Path>
/home/csk/Desktop/cluster/DUD-E-result/tysy

> <s_m_Source_File>
dock_pv.maegz

> <i_m_Source_File_Index>
25

> <chembl_id>
CHEMBL325972

> <chembl_pref_name>
None

> <i_lp_mmshare_version>
53161

> <r_lp_tautomer_probability>
0.878315377147829

> <s_lp_Force_Field>
OPLS_2005

> <r_lp_Energy>
24.149492

> <b_lp_Chiralities_Consistent>
1

> <s_lp_Variant>
CHEMBL1952_lig384-1

> <s_i_glide_gridfile>
glide-grid_1syn

> <i_i_glide_lignum>
761

> <i_i_glide_rotatable_bonds>
12

> <r_i_docking_score>
-9.05862244630593

> <r_i_glide_ligand_efficiency>
-0.238384801218577

> <r_i_glide_ligand_efficiency_sa>
-0.801443838079742

> <r_i_glide_ligand_efficiency_ln>
-1.95330547709768

> <r_i_glide_gscore>
-9.05862244630593

> <r_i_glide_lipo>
-3.84437407208417

> <r_i_glide_hbond>
-0.353387928315911

> <r_i_glide_metal>
0

> <r_i_glide_rewards>
-0.193119867760522

> <r_i_glide_evdw>
-69.2024993896484

> <r_i_glide_ecoul>
-11.7507085800171

> <r_i_glide_erotb>
0.705213309287663

> <r_i_glide_esite>
-0.150222630948009

> <r_i_glide_emodel>
-123.568258505874

> <r_i_glide_energy>
-80.9532079696655

> <r_i_glide_einternal>
3.95138764381409

> <i_i_glide_confnum>
150

> <i_i_glide_posenum>
243

> <r_i_glide_eff_state_penalty>
0

> <s_user_duplicate_titles>
CHEMBL1952_lig384,CHEMBL1952_lig384,CHEMBL1952_lig384

> <i_f3d_flags>
0

> <s_m_subgroup_title>
dock_pv

> <s_m_subgroupid>
dock_pv

> <b_m_subgroup_collapsed>
1

$$$$
CHEMBL1952_lig317 
                    3D
 Schrodinger Suite 2021-1.
 47 50  0  0  1  0            999 V2000
   13.6616   18.7735   32.8360 N   0  0  0  0  0  0
   12.9924   18.6546   31.6400 C   0  0  0  0  0  0
   13.3043   17.7263   30.7941 N   0  0  0  0  0  0
   14.7109   18.0275   33.2934 C   0  0  0  0  0  0
   15.1116   17.0281   32.3103 C   0  0  0  0  0  0
   14.3649   16.9362   31.1367 C   0  0  0  0  0  0
   14.9122   15.9499   30.3662 N   0  0  0  0  0  0
   15.9895   15.4281   31.0400 C   0  0  0  0  0  0
   16.1523   16.0771   32.2691 C   0  0  0  0  0  0
   15.1943   18.2529   34.3910 O   0  0  0  0  0  0
   11.9755   19.5937   31.3927 N   0  0  0  0  0  0
   17.2662   15.8593   33.2815 C   0  0  0  0  0  0
   17.0282   14.6809   34.2169 C   0  0  0  0  0  0
   17.8950   13.5856   34.1896 C   0  0  0  0  0  0
   17.6562   12.4888   35.0130 C   0  0  0  0  0  0
   16.5406   12.4728   35.8510 C   0  0  0  0  0  0
   15.7005   13.5872   35.9114 C   0  0  0  0  0  0
   15.9510   14.6943   35.1057 C   0  0  0  0  0  0
   16.2497   11.2654   36.6384 C   0  0  0  0  0  0
   15.0382   10.6833   36.7229 C   0  0  0  0  0  0
   14.7121    9.4986   37.5471 C   0  0  0  0  0  0
   15.1919    9.4276   38.8571 C   0  0  0  0  0  0
   14.8935    8.3465   39.6797 C   0  0  0  0  0  0
   14.1025    7.3061   39.2022 C   0  0  0  0  0  0
   13.6154    7.3536   37.8989 C   0  0  0  0  0  0
   13.9179    8.4395   37.0650 C   0  0  0  0  0  0
   13.3934    8.4243   35.6639 C   0  0  0  0  0  0
   12.0531    8.6280   35.5911 O   0  0  0  0  0  0
   14.1206    8.2280   34.6944 O   0  0  0  0  0  0
   13.3873   19.5168   33.4678 H   0  0  0  0  0  0
   14.5867   15.6765   29.4513 H   0  0  0  0  0  0
   16.5756   14.6387   30.5886 H   0  0  0  0  0  0
   11.2920   19.4234   30.6638 H   0  0  0  0  0  0
   11.5697   20.0949   32.1693 H   0  0  0  0  0  0
   17.3786   16.7518   33.8964 H   0  0  0  0  0  0
   18.2194   15.7401   32.7689 H   0  0  0  0  0  0
   18.7428   13.5679   33.5179 H   0  0  0  0  0  0
   18.3204   11.6382   34.9603 H   0  0  0  0  0  0
   14.8454   13.5971   36.5715 H   0  0  0  0  0  0
   15.2892   15.5472   35.1495 H   0  0  0  0  0  0
   17.0753   10.8428   37.1905 H   0  0  0  0  0  0
   14.2191   11.1121   36.1640 H   0  0  0  0  0  0
   15.7919   10.2279   39.2487 H   0  0  0  0  0  0
   15.2669    8.3225   40.6926 H   0  0  0  0  0  0
   13.8635    6.4686   39.8404 H   0  0  0  0  0  0
   13.0063    6.5347   37.5395 H   0  0  0  0  0  0
   11.7375    8.4150   34.7050 H   0  0  0  0  0  0
  1  2  1  0  0  0
  1  4  1  0  0  0
  1 30  1  0  0  0
  2  3  2  0  0  0
  2 11  1  0  0  0
  3  6  1  0  0  0
  4  5  1  0  0  0
  4 10  2  0  0  0
  5  6  2  0  0  0
  5  9  1  0  0  0
  6  7  1  0  0  0
  7  8  1  0  0  0
  7 31  1  0  0  0
  8  9  2  0  0  0
  8 32  1  0  0  0
  9 12  1  0  0  0
 11 33  1  0  0  0
 11 34  1  0  0  0
 12 13  1  0  0  0
 12 35  1  0  0  0
 12 36  1  0  0  0
 13 14  2  0  0  0
 13 18  1  0  0  0
 14 15  1  0  0  0
 14 37  1  0  0  0
 15 16  2  0  0  0
 15 38  1  0  0  0
 16 17  1  0  0  0
 16 19  1  0  0  0
 17 18  2  0  0  0
 17 39  1  0  0  0
 18 40  1  0  0  0
 19 20  2  0  0  0
 19 41  1  0  0  0
 20 21  1  0  0  0
 20 42  1  0  0  0
 21 22  2  0  0  0
 21 26  1  0  0  0
 22 23  1  0  0  0
 22 43  1  0  0  0
 23 24  2  0  0  0
 23 44  1  0  0  0
 24 25  1  0  0  0
 24 45  1  0  0  0
 25 26  2  0  0  0
 25 46  1  0  0  0
 26 27  1  0  0  0
 27 28  1  0  0  0
 27 29  2  0  0  0
 28 47  1  0  0  0
M  END
> <s_m_entry_id>
40909

> <s_m_entry_name>
dock_pv.26

> <s_m_Source_Path>
/home/csk/Desktop/cluster/DUD-E-result/tysy

> <s_m_Source_File>
dock_pv.maegz

> <i_m_Source_File_Index>
26

> <chembl_id>
CHEMBL4551599

> <chembl_pref_name>
None

> <i_lp_mmshare_version>
53161

> <r_lp_tautomer_probability>
1

> <s_lp_Force_Field>
OPLS_2005

> <r_lp_Energy>
30.096567

> <b_lp_Chiralities_Consistent>
1

> <s_lp_Variant>
CHEMBL1952_lig317 -1

> <s_i_glide_gridfile>
glide-grid_1syn

> <i_i_glide_lignum>
589

> <i_i_glide_rotatable_bonds>
6

> <r_i_docking_score>
-9.03027589794553

> <r_i_glide_ligand_efficiency>
-0.311388824067087

> <r_i_glide_ligand_efficiency_sa>
-0.956685122438028

> <r_i_glide_ligand_efficiency_ln>
-2.06770419259038

> <r_i_glide_gscore>
-9.03027589794553

> <r_i_glide_lipo>
-3.2815649587532

> <r_i_glide_hbond>
-0.669515808243413

> <r_i_glide_metal>
0

> <r_i_glide_rewards>
-1.67632639532797

> <r_i_glide_evdw>
-45.4312782287598

> <r_i_glide_ecoul>
-11.8872089385986

> <r_i_glide_erotb>
0.651776516606834

> <r_i_glide_esite>
0

> <r_i_glide_emodel>
-85.3550353239339

> <r_i_glide_energy>
-57.3184871673584

> <r_i_glide_einternal>
7.68268394470215

> <i_i_glide_confnum>
84

> <i_i_glide_posenum>
38

> <r_i_glide_eff_state_penalty>
0

> <s_user_duplicate_titles>
CHEMBL1952_lig317 

> <i_f3d_flags>
0

> <s_m_subgroup_title>
dock_pv

> <s_m_subgroupid>
dock_pv

> <b_m_subgroup_collapsed>
1

$$$$
CHEMBL1952_lig156
                    3D
 Schrodinger Suite 2021-1.
 32 34  0  0  1  0            999 V2000
   13.4954   19.0280   32.9422 N   0  0  0  0  0  0
   12.7795   18.9874   31.7750 C   0  0  0  0  0  0
   13.0146   18.0716   30.8973 N   0  0  0  0  0  0
   14.5293   18.2280   33.3224 C   0  0  0  0  0  0
   14.8269   17.2122   32.3150 C   0  0  0  0  0  0
   14.0339   17.1976   31.1679 C   0  0  0  0  0  0
   14.5186   15.9513   30.0756 S   0  0  0  0  0  0
   15.8269   15.4567   31.1264 C   0  0  0  0  0  0
   15.8395   16.2270   32.2997 C   0  0  0  0  0  0
   16.7680   14.3536   30.6938 C   0  0  0  0  0  0
   17.1186   16.0810   33.5242 S   0  0  0  0  0  0
   11.7922   19.9684   31.5910 N   0  0  0  0  0  0
   15.0728   18.4360   34.3924 O   0  0  0  0  0  0
   16.5278   14.7965   34.5759 C   0  0  0  0  0  0
   17.3143   13.6611   34.7588 C   0  0  0  0  0  0
   16.8660   12.6371   35.5879 C   0  0  0  0  0  0
   15.6374   12.7479   36.2556 C   0  0  0  0  0  0
   14.8750   13.9148   36.0874 C   0  0  0  0  0  0
   15.3172   14.9366   35.2508 C   0  0  0  0  0  0
   15.1543   11.6492   37.1279 N   0  3  0  0  0  0
   14.1351   11.8313   37.7892 O   0  0  0  0  0  0
   15.7882   10.5959   37.1581 O   0  5  0  0  0  0
   13.2686   19.7341   33.6397 H   0  0  0  0  0  0
   17.3079   13.9125   31.5318 H   0  0  0  0  0  0
   16.2471   13.5361   30.1938 H   0  0  0  0  0  0
   17.5171   14.7256   29.9949 H   0  0  0  0  0  0
   11.0968   19.8277   30.8644 H   0  0  0  0  0  0
   11.4039   20.4224   32.4026 H   0  0  0  0  0  0
   18.2616   13.5638   34.2467 H   0  0  0  0  0  0
   17.4830   11.7574   35.7047 H   0  0  0  0  0  0
   13.9303   14.0354   36.5982 H   0  0  0  0  0  0
   14.7238   15.8309   35.1324 H   0  0  0  0  0  0
  1  2  1  0  0  0
  1  4  1  0  0  0
  1 23  1  0  0  0
  2 12  1  0  0  0
  2  3  2  0  0  0
  3  6  1  0  0  0
  4 13  2  0  0  0
  4  5  1  0  0  0
  5  6  2  0  0  0
  5  9  1  0  0  0
  6  7  1  0  0  0
  7  8  1  0  0  0
  8  9  2  0  0  0
  8 10  1  0  0  0
  9 11  1  0  0  0
 10 24  1  0  0  0
 10 25  1  0  0  0
 10 26  1  0  0  0
 11 14  1  0  0  0
 12 27  1  0  0  0
 12 28  1  0  0  0
 14 15  2  0  0  0
 14 19  1  0  0  0
 15 16  1  0  0  0
 15 29  1  0  0  0
 16 17  2  0  0  0
 16 30  1  0  0  0
 17 18  1  0  0  0
 17 20  1  0  0  0
 18 19  2  0  0  0
 18 31  1  0  0  0
 19 32  1  0  0  0
 20 21  2  0  0  0
 20 22  1  0  0  0
M  CHG  2  20   1  22  -1
M  END
> <s_m_entry_id>
40910

> <s_m_entry_name>
dock_pv.27

> <s_m_Source_Path>
/home/csk/Desktop/cluster/DUD-E-result/tysy

> <s_m_Source_File>
dock_pv.maegz

> <i_m_Source_File_Index>
27

> <chembl_id>
CHEMBL492836

> <chembl_pref_name>
None

> <i_lp_mmshare_version>
53161

> <r_lp_tautomer_probability>
1

> <s_lp_Force_Field>
OPLS_2005

> <r_lp_Energy>
18.082463

> <b_lp_Chiralities_Consistent>
1

> <s_lp_Variant>
CHEMBL1952_lig156-1

> <s_i_glide_gridfile>
glide-grid_1syn

> <i_i_glide_lignum>
333

> <i_i_glide_rotatable_bonds>
3

> <r_i_docking_score>
-9.01459808185282

> <r_i_glide_ligand_efficiency>
-0.409754458266037

> <r_i_glide_ligand_efficiency_sa>
-1.14814810678984

> <r_i_glide_ligand_efficiency_ln>
-2.20349658665917

> <r_i_glide_gscore>
-9.01459808185282

> <r_i_glide_lipo>
-3.65184541935215

> <r_i_glide_hbond>
-0.456

> <r_i_glide_metal>
0

> <r_i_glide_rewards>
-1.77239278610299

> <r_i_glide_evdw>
-44.3349075317383

> <r_i_glide_ecoul>
-8.25219631195068

> <r_i_glide_erotb>
0.337362113993045

> <r_i_glide_esite>
-0.0171471670112029

> <r_i_glide_emodel>
-82.304684446613

> <r_i_glide_energy>
-52.587103843689

> <r_i_glide_einternal>
0.747531354427338

> <i_i_glide_confnum>
8

> <i_i_glide_posenum>
225

> <r_i_glide_eff_state_penalty>
0

> <s_user_duplicate_titles>
CHEMBL1952_lig156,469458

> <i_f3d_flags>
0

> <s_m_subgroup_title>
dock_pv

> <s_m_subgroupid>
dock_pv

> <b_m_subgroup_collapsed>
1

$$$$
CHEMBL1952_lig112
                    3D
 Schrodinger Suite 2021-1.
 55 57  0  0  1  0            999 V2000
   13.5023   17.1037   29.8223 N   0  0  0  0  0  0
   12.9595   18.6322   31.6053 N   0  0  0  0  0  0
   14.7781   17.0581   31.8986 C   0  0  0  0  0  0
   14.4936   16.5825   30.5862 C   0  0  0  0  0  0
   13.9537   18.1257   32.3682 C   0  0  0  0  0  0
   12.7931   18.1023   30.3773 C   0  0  0  0  0  0
   15.3566   10.7417   36.9161 C   0  0  0  0  0  0
   15.2062   15.5860   30.0037 N   0  0  0  0  0  0
   15.8584   16.4560   32.6015 C   0  0  0  0  0  0
   14.5981   11.0831   37.9766 N   0  0  0  0  0  0
   16.6273   15.4496   31.9907 C   0  0  0  0  0  0
   14.5840    9.0530   39.5087 C   0  0  0  0  0  0
   17.7750   14.8928   32.6168 N   0  0  0  0  0  0
   13.7878   10.1993   38.8285 C   0  0  1  0  0  0
   16.0710   11.8816   36.2317 C   0  0  0  0  0  0
   11.4204   12.9792   40.3958 C   0  0  0  0  0  0
   14.2234   18.6276   33.6134 O   0  0  0  0  0  0
   16.2377   15.0527   30.7003 C   0  0  0  0  0  0
   15.4789    9.5808   36.5204 O   0  0  0  0  0  0
   18.0598   15.0437   34.0477 C   0  0  0  0  0  0
   15.7899    9.0276   39.6339 O   0  0  0  0  0  0
   11.7922   18.6274   29.5912 N   0  0  0  0  0  0
   11.7930   13.0340   41.5697 O   0  0  0  0  0  0
   13.0496   11.0660   39.8879 C   0  0  0  0  0  0
   17.2776   11.6359   35.5656 C   0  0  0  0  0  0
   15.5400   13.1832   36.2246 C   0  0  0  0  0  0
   12.1208   12.1607   39.3069 C   0  0  0  0  0  0
   17.3767   13.9437   34.8533 C   0  0  0  0  0  0
   13.7205    8.0970   39.9597 O   0  0  0  0  0  0
   10.3243   13.6415   39.9291 O   0  0  0  0  0  0
   16.1936   14.2101   35.5459 C   0  0  0  0  0  0
   17.9255   12.6597   34.8795 C   0  0  0  0  0  0
   18.6578   14.0012   31.8629 C   0  0  0  0  0  0
   16.0867   16.8286   33.5878 H   0  0  0  0  0  0
   14.6404   12.0473   38.2684 H   0  0  0  0  0  0
   13.0538    9.7371   38.1670 H   0  0  0  0  0  0
   13.6198   19.3459   33.8422 H   0  0  0  0  0  0
   16.7650   14.2757   30.1671 H   0  0  0  0  0  0
   17.7823   16.0322   34.4006 H   0  0  0  0  0  0
   19.1344   14.9778   34.2195 H   0  0  0  0  0  0
   11.1077   19.2623   29.9915 H   0  0  0  0  0  0
   11.6605   18.2459   28.6718 H   0  0  0  0  0  0
   13.7890   11.5412   40.5355 H   0  0  0  0  0  0
   12.4498   10.4281   40.5397 H   0  0  0  0  0  0
   17.7127   10.6461   35.5522 H   0  0  0  0  0  0
   14.6067   13.4140   36.7176 H   0  0  0  0  0  0
   11.3685   11.6940   38.6688 H   0  0  0  0  0  0
   12.6813   12.8537   38.6790 H   0  0  0  0  0  0
   12.8081    8.2666   39.7205 H   0  0  0  0  0  0
   10.1613   13.5176   38.9906 H   0  0  0  0  0  0
   15.7609   15.2009   35.5349 H   0  0  0  0  0  0
   18.8425   12.4459   34.3479 H   0  0  0  0  0  0
   18.9020   14.4195   30.8843 H   0  0  0  0  0  0
   19.6034   13.8282   32.3803 H   0  0  0  0  0  0
   18.1828   13.0332   31.7026 H   0  0  0  0  0  0
  1  4  2  0  0  0
  1  6  1  0  0  0
  2  6  2  0  0  0
  2  5  1  0  0  0
  3  4  1  0  0  0
  3  9  1  0  0  0
  3  5  2  0  0  0
  4  8  1  0  0  0
  5 17  1  0  0  0
  6 22  1  0  0  0
  7 15  1  0  0  0
  7 10  1  0  0  0
  7 19  2  0  0  0
  8 18  2  0  0  0
  9 11  2  0  0  0
  9 34  1  0  0  0
 10 14  1  0  0  0
 10 35  1  0  0  0
 11 18  1  0  0  0
 11 13  1  0  0  0
 12 14  1  0  0  0
 12 21  2  0  0  0
 12 29  1  0  0  0
 13 20  1  0  0  0
 13 33  1  0  0  0
 14 24  1  0  0  0
 14 36  1  0  0  0
 15 25  1  0  0  0
 15 26  2  0  0  0
 16 27  1  0  0  0
 16 23  2  0  0  0
 16 30  1  0  0  0
 17 37  1  0  0  0
 18 38  1  0  0  0
 20 28  1  0  0  0
 20 39  1  0  0  0
 20 40  1  0  0  0
 22 41  1  0  0  0
 22 42  1  0  0  0
 24 27  1  0  0  0
 24 43  1  0  0  0
 24 44  1  0  0  0
 25 32  2  0  0  0
 25 45  1  0  0  0
 26 31  1  0  0  0
 26 46  1  0  0  0
 27 47  1  0  0  0
 27 48  1  0  0  0
 28 31  2  0  0  0
 28 32  1  0  0  0
 29 49  1  0  0  0
 30 50  1  0  0  0
 31 51  1  0  0  0
 32 52  1  0  0  0
 33 53  1  0  0  0
 33 54  1  0  0  0
 33 55  1  0  0  0
M  END
> <s_m_entry_id>
40911

> <s_m_entry_name>
dock_pv.28

> <s_m_Source_Path>
/home/csk/Desktop/cluster/DUD-E-result/tysy

> <s_m_Source_File>
dock_pv.maegz

> <i_m_Source_File_Index>
28

> <chembl_id>
CHEMBL156551

> <chembl_pref_name>
None

> <i_lp_mmshare_version>
53161

> <r_lp_tautomer_probability>
1

> <s_lp_Force_Field>
OPLS_2005

> <r_lp_Energy>
9.950206

> <b_lp_Chiralities_Consistent>
1

> <s_lp_Variant>
CHEMBL1952_lig112-1

> <s_i_glide_gridfile>
glide-grid_1syn

> <i_i_glide_lignum>
286

> <i_i_glide_rotatable_bonds>
13

> <r_i_docking_score>
-9.00387461305236

> <r_i_glide_ligand_efficiency>
-0.272844685244011

> <r_i_glide_ligand_efficiency_sa>
-0.875158693657071

> <r_i_glide_ligand_efficiency_ln>
-2.00241509437512

> <r_i_glide_gscore>
-9.00387461305236

> <r_i_glide_lipo>
-3.06010884721855

> <r_i_glide_hbond>
-0.687175674048252

> <r_i_glide_metal>
0

> <r_i_glide_rewards>
-1.49650597087475

> <r_i_glide_evdw>
-53.3080558776855

> <r_i_glide_ecoul>
-13.07297706604

> <r_i_glide_erotb>
0.972393325174667

> <r_i_glide_esite>
-0.106128092295198

> <r_i_glide_emodel>
-103.319137896836

> <r_i_glide_energy>
-66.3810329437256

> <r_i_glide_einternal>
4.22831010818481

> <i_i_glide_confnum>
8

> <i_i_glide_posenum>
203

> <r_i_glide_eff_state_penalty>
0

> <s_user_duplicate_titles>
CHEMBL1952_lig112

> <i_f3d_flags>
0

> <s_m_subgroup_title>
dock_pv

> <s_m_subgroupid>
dock_pv

> <b_m_subgroup_collapsed>
1

$$$$
CHEMBL1952_lig166
                    3D
 Schrodinger Suite 2021-1.
 35 37  0  0  1  0            999 V2000
   15.8671   12.4965   36.0120 C   0  0  0  0  0  0
   17.0551   12.4949   35.2658 C   0  0  0  0  0  0
   17.4208   13.6118   34.5214 C   0  0  0  0  0  0
   16.5928   14.7321   34.5085 C   0  0  0  0  0  0
   15.4164   14.7590   35.2521 C   0  0  0  0  0  0
   15.0551   13.6422   36.0005 C   0  0  0  0  0  0
   17.0874   16.1467   33.5909 S   0  0  0  0  0  0
   15.8459   16.2425   32.3314 C   0  0  0  0  0  0
   14.5518   15.9236   30.1041 S   0  0  0  0  0  0
   15.8359   15.4279   31.1904 C   0  0  0  0  0  0
   14.0527   17.1920   31.1664 C   0  0  0  0  0  0
   14.8299   17.2168   32.3218 C   0  0  0  0  0  0
   14.5200   18.2300   33.3208 C   0  0  0  0  0  0
   13.4938   19.0274   32.9285 N   0  0  0  0  0  0
   12.7832   18.9776   31.7593 C   0  0  0  0  0  0
   13.0303   18.0609   30.8827 N   0  0  0  0  0  0
   16.7296   14.2493   30.8465 C   0  0  0  0  0  0
   11.7931   19.9563   31.5863 N   0  0  0  0  0  0
   15.0513   18.4511   34.3916 O   0  0  0  0  0  0
   18.2255   14.5956   30.7865 C   0  0  0  0  0  0
   15.4782   11.3069   36.8083 N   0  3  0  0  0  0
   16.1912   10.3060   36.7676 O   0  0  0  0  0  0
   14.4568   11.3663   37.4864 O   0  5  0  0  0  0
   17.7065   11.6307   35.2566 H   0  0  0  0  0  0
   18.3389   13.6005   33.9490 H   0  0  0  0  0  0
   14.7928   15.6422   35.2589 H   0  0  0  0  0  0
   14.1391   13.6760   36.5729 H   0  0  0  0  0  0
   13.2688   19.7356   33.6239 H   0  0  0  0  0  0
   16.5945   13.4642   31.5918 H   0  0  0  0  0  0
   16.4356   13.7947   29.8987 H   0  0  0  0  0  0
   11.1021   19.8280   30.8542 H   0  0  0  0  0  0
   11.4019   20.4049   32.4002 H   0  0  0  0  0  0
   18.8072   13.6897   30.6295 H   0  0  0  0  0  0
   18.4456   15.2818   29.9725 H   0  0  0  0  0  0
   18.6146   15.0321   31.7007 H   0  0  0  0  0  0
  1  6  1  0  0  0
  1  2  2  0  0  0
  1 21  1  0  0  0
  2  3  1  0  0  0
  2 24  1  0  0  0
  3  4  2  0  0  0
  3 25  1  0  0  0
  4  7  1  0  0  0
  4  5  1  0  0  0
  5  6  2  0  0  0
  5 26  1  0  0  0
  6 27  1  0  0  0
  7  8  1  0  0  0
  8 12  1  0  0  0
  8 10  2  0  0  0
  9 11  1  0  0  0
  9 10  1  0  0  0
 10 17  1  0  0  0
 11 12  2  0  0  0
 11 16  1  0  0  0
 12 13  1  0  0  0
 13 14  1  0  0  0
 13 19  2  0  0  0
 14 15  1  0  0  0
 14 28  1  0  0  0
 15 16  2  0  0  0
 15 18  1  0  0  0
 17 20  1  0  0  0
 17 29  1  0  0  0
 17 30  1  0  0  0
 18 31  1  0  0  0
 18 32  1  0  0  0
 20 33  1  0  0  0
 20 34  1  0  0  0
 20 35  1  0  0  0
 21 22  2  0  0  0
 21 23  1  0  0  0
M  CHG  2  21   1  23  -1
M  END
> <s_m_entry_id>
40912

> <s_m_entry_name>
dock_pv.29

> <s_m_Source_Path>
/home/csk/Desktop/cluster/DUD-E-result/tysy

> <s_m_Source_File>
dock_pv.maegz

> <i_m_Source_File_Index>
29

> <chembl_id>
CHEMBL564937

> <chembl_pref_name>
None

> <i_lp_mmshare_version>
53161

> <r_lp_tautomer_probability>
1

> <s_lp_Force_Field>
OPLS_2005

> <r_lp_Energy>
15.305054

> <b_lp_Chiralities_Consistent>
1

> <s_lp_Variant>
CHEMBL1952_lig166-1

> <s_i_glide_gridfile>
glide-grid_1syn

> <i_i_glide_lignum>
343

> <i_i_glide_rotatable_bonds>
4

> <r_i_docking_score>
-9.00356430165088

> <r_i_glide_ligand_efficiency>
-0.391459317463082

> <r_i_glide_ligand_efficiency_sa>
-1.11325822572495

> <r_i_glide_ligand_efficiency_ln>
-2.17714348794658

> <r_i_glide_gscore>
-9.00356430165088

> <r_i_glide_lipo>
-3.63314418390535

> <r_i_glide_hbond>
-0.456

> <r_i_glide_metal>
0

> <r_i_glide_rewards>
-1.67556852121946

> <r_i_glide_evdw>
-45.2919425964355

> <r_i_glide_ecoul>
-8.47618770599365

> <r_i_glide_erotb>
0.313651755353312

> <r_i_glide_esite>
-0.016478066158557

> <r_i_glide_emodel>
-82.563382579345

> <r_i_glide_energy>
-53.7681303024292

> <r_i_glide_einternal>
3.08130407333374

> <i_i_glide_confnum>
6

> <i_i_glide_posenum>
167

> <r_i_glide_eff_state_penalty>
0

> <s_user_duplicate_titles>
CHEMBL1952_lig166,567254

> <i_f3d_flags>
0

> <s_m_subgroup_title>
dock_pv

> <s_m_subgroupid>
dock_pv

> <b_m_subgroup_collapsed>
1

$$$$
CHEMBL1952_lig172
                    3D
 Schrodinger Suite 2021-1.
 33 35  0  0  1  0            999 V2000
   15.7132   12.7880   36.1703 C   0  0  0  0  0  0
   16.9530   12.6993   35.5410 C   0  0  0  0  0  0
   17.3963   13.7481   34.7395 C   0  0  0  0  0  0
   16.5908   14.8736   34.5646 C   0  0  0  0  0  0
   15.3537   14.9672   35.2040 C   0  0  0  0  0  0
   14.9144   13.9186   36.0088 C   0  0  0  0  0  0
   17.1979   16.2128   33.5909 S   0  0  0  0  0  0
   15.9647   16.3793   32.3327 C   0  0  0  0  0  0
   14.7476   16.1590   30.0479 S   0  0  0  0  0  0
   16.0861   15.7388   31.0935 C   0  0  0  0  0  0
   14.1435   17.3008   31.1963 C   0  0  0  0  0  0
   14.8940   17.2970   32.3718 C   0  0  0  0  0  0
   14.5052   18.2324   33.4259 C   0  0  0  0  0  0
   13.4696   19.0278   33.0290 N   0  0  0  0  0  0
   12.7998   19.0134   31.8303 C   0  0  0  0  0  0
   13.0944   18.1383   30.9303 N   0  0  0  0  0  0
   17.2105   14.8461   30.6075 C   0  0  0  0  0  0
   11.7921   19.9715   31.6308 N   0  0  0  0  0  0
   14.9918   18.3873   34.5351 O   0  0  0  0  0  0
   16.9552   13.3659   30.8871 C   0  0  0  0  0  0
   15.2813   11.7678   36.9455 F   0  0  0  0  0  0
   17.5687   11.8230   35.6775 H   0  0  0  0  0  0
   18.3600   13.6847   34.2535 H   0  0  0  0  0  0
   14.7406   15.8475   35.0932 H   0  0  0  0  0  0
   13.9597   13.9819   36.5086 H   0  0  0  0  0  0
   13.2076   19.7182   33.7319 H   0  0  0  0  0  0
   17.3947   14.9998   29.5462 H   0  0  0  0  0  0
   18.1452   15.1251   31.0961 H   0  0  0  0  0  0
   11.1227   19.8279   30.8816 H   0  0  0  0  0  0
   11.3707   20.4048   32.4370 H   0  0  0  0  0  0
   17.8681   12.7800   30.7870 H   0  0  0  0  0  0
   16.5970   13.2158   31.9040 H   0  0  0  0  0  0
   16.2098   12.9615   30.2024 H   0  0  0  0  0  0
  1  6  1  0  0  0
  1  2  2  0  0  0
  1 21  1  0  0  0
  2  3  1  0  0  0
  2 22  1  0  0  0
  3  4  2  0  0  0
  3 23  1  0  0  0
  4  7  1  0  0  0
  4  5  1  0  0  0
  5  6  2  0  0  0
  5 24  1  0  0  0
  6 25  1  0  0  0
  7  8  1  0  0  0
  8 10  2  0  0  0
  8 12  1  0  0  0
  9 10  1  0  0  0
  9 11  1  0  0  0
 10 17  1  0  0  0
 11 12  2  0  0  0
 11 16  1  0  0  0
 12 13  1  0  0  0
 13 14  1  0  0  0
 13 19  2  0  0  0
 14 15  1  0  0  0
 14 26  1  0  0  0
 15 16  2  0  0  0
 15 18  1  0  0  0
 17 20  1  0  0  0
 17 27  1  0  0  0
 17 28  1  0  0  0
 18 29  1  0  0  0
 18 30  1  0  0  0
 20 31  1  0  0  0
 20 32  1  0  0  0
 20 33  1  0  0  0
M  END
> <s_m_entry_id>
40913

> <s_m_entry_name>
dock_pv.30

> <s_m_Source_Path>
/home/csk/Desktop/cluster/DUD-E-result/tysy

> <s_m_Source_File>
dock_pv.maegz

> <i_m_Source_File_Index>
30

> <chembl_id>
CHEMBL538143

> <chembl_pref_name>
None

> <i_lp_mmshare_version>
53161

> <r_lp_tautomer_probability>
1

> <s_lp_Force_Field>
OPLS_2005

> <r_lp_Energy>
12.071953

> <b_lp_Chiralities_Consistent>
1

> <s_lp_Variant>
CHEMBL1952_lig172-1

> <s_i_glide_gridfile>
glide-grid_1syn

> <i_i_glide_lignum>
349

> <i_i_glide_rotatable_bonds>
3

> <r_i_docking_score>
-8.97937277848269

> <r_i_glide_ligand_efficiency>
-0.427589179927747

> <r_i_glide_ligand_efficiency_sa>
-1.17968612486445

> <r_i_glide_ligand_efficiency_ln>
-2.22013177494869

> <r_i_glide_gscore>
-8.97937277848269

> <r_i_glide_lipo>
-3.87105839366356

> <r_i_glide_hbond>
-0.456

> <r_i_glide_metal>
0

> <r_i_glide_rewards>
-1.93210264385179

> <r_i_glide_evdw>
-40.130672454834

> <r_i_glide_ecoul>
-7.02524185180664

> <r_i_glide_erotb>
0.361799219966486

> <r_i_glide_esite>
-0.0216910604211313

> <r_i_glide_emodel>
-74.4790485985553

> <r_i_glide_energy>
-47.1559143066406

> <r_i_glide_einternal>
0.88274759054184

> <i_i_glide_confnum>
6

> <i_i_glide_posenum>
34

> <r_i_glide_eff_state_penalty>
0

> <s_user_duplicate_titles>
CHEMBL1952_lig172

> <i_f3d_flags>
0

> <s_m_subgroup_title>
dock_pv

> <s_m_subgroupid>
dock_pv

> <b_m_subgroup_collapsed>
1

$$$$
CHEMBL1952_lig389
                    3D
 Schrodinger Suite 2021-1.
 37 39  0  0  1  0            999 V2000
   14.8571   17.1664   32.1603 C   0  0  0  0  0  0
   14.5156   18.1537   33.2705 C   0  0  0  0  0  0
   13.5411   19.0270   32.9430 N   0  0  0  0  0  0
   15.9078   16.2118   32.2354 C   0  0  0  0  0  0
   13.0621   18.2345   30.8436 N   0  0  0  0  0  0
   14.0550   17.2540   31.0096 C   0  0  0  0  0  0
   12.8689   19.1006   31.7650 C   0  0  0  0  0  0
   17.1001   16.2558   33.5885 S   0  0  0  0  0  0
   17.5519   10.5778   35.5930 C   0  0  0  0  0  0
   16.1010   15.3533   31.1236 C   0  0  0  0  0  0
   14.9925   18.2258   34.3911 O   0  0  0  0  0  0
   17.5140   12.0304   35.1909 C   0  0  0  0  0  0
   14.2468   16.3838   29.9491 C   0  0  0  0  0  0
   16.6895   10.0843   36.3202 O   0  0  0  0  0  0
   15.2551   15.4323   30.0111 C   0  0  0  0  0  0
   17.2683   14.6378   34.2511 C   0  0  0  0  0  0
   18.5215   12.5912   34.3915 C   0  0  0  0  0  0
   16.4332   12.8310   35.5921 C   0  0  0  0  0  0
   18.5861    9.8538   35.0721 O   0  0  0  0  0  0
   16.3125   14.1393   35.1310 C   0  0  0  0  0  0
   18.4053   13.8976   33.9401 C   0  0  0  0  0  0
   11.8922   20.2378   31.5935 C   0  0  0  0  0  0
   17.2480   14.3593   31.0223 C   0  0  0  0  0  0
   13.3232   19.6888   33.6853 H   0  0  0  0  0  0
   13.6329   16.4742   29.0667 H   0  0  0  0  0  0
   15.4033   14.7767   29.1640 H   0  0  0  0  0  0
   19.3920   12.0381   34.0703 H   0  0  0  0  0  0
   15.6577   12.4363   36.2338 H   0  0  0  0  0  0
   19.1624   10.3841   34.5192 H   0  0  0  0  0  0
   15.4614   14.7420   35.4144 H   0  0  0  0  0  0
   19.1799   14.3101   33.3091 H   0  0  0  0  0  0
   11.6057   20.3628   30.5502 H   0  0  0  0  0  0
   10.9913   20.0650   32.1790 H   0  0  0  0  0  0
   12.3307   21.1801   31.9173 H   0  0  0  0  0  0
   17.3931   14.0087   30.0022 H   0  0  0  0  0  0
   18.1890   14.8245   31.3142 H   0  0  0  0  0  0
   17.0644   13.4882   31.6499 H   0  0  0  0  0  0
  1  2  1  0  0  0
  1  4  1  0  0  0
  1  6  2  0  0  0
  2 11  2  0  0  0
  2  3  1  0  0  0
  3  7  1  0  0  0
  3 24  1  0  0  0
  4  8  1  0  0  0
  4 10  2  0  0  0
  5  6  1  0  0  0
  5  7  2  0  0  0
  6 13  1  0  0  0
  7 22  1  0  0  0
  8 16  1  0  0  0
  9 12  1  0  0  0
  9 14  2  0  0  0
  9 19  1  0  0  0
 10 23  1  0  0  0
 10 15  1  0  0  0
 12 17  2  0  0  0
 12 18  1  0  0  0
 13 15  2  0  0  0
 13 25  1  0  0  0
 15 26  1  0  0  0
 16 20  1  0  0  0
 16 21  2  0  0  0
 17 21  1  0  0  0
 17 27  1  0  0  0
 18 20  2  0  0  0
 18 28  1  0  0  0
 19 29  1  0  0  0
 20 30  1  0  0  0
 21 31  1  0  0  0
 22 32  1  0  0  0
 22 33  1  0  0  0
 22 34  1  0  0  0
 23 35  1  0  0  0
 23 36  1  0  0  0
 23 37  1  0  0  0
M  END
> <s_m_entry_id>
40914

> <s_m_entry_name>
dock_pv.31

> <s_m_Source_Path>
/home/csk/Desktop/cluster/DUD-E-result/tysy

> <s_m_Source_File>
dock_pv.maegz

> <i_m_Source_File_Index>
31

> <chembl_id>
CHEMBL165453

> <chembl_pref_name>
None

> <i_lp_mmshare_version>
53161

> <r_lp_tautomer_probability>
0.883938

> <s_lp_Force_Field>
OPLS_2005

> <r_lp_Energy>
26.039233

> <b_lp_Chiralities_Consistent>
1

> <s_lp_Variant>
CHEMBL1952_lig389-1

> <s_i_glide_gridfile>
glide-grid_1syn

> <i_i_glide_lignum>
770

> <i_i_glide_rotatable_bonds>
4

> <r_i_docking_score>
-8.95659276514347

> <r_i_glide_ligand_efficiency>
-0.389417076745368

> <r_i_glide_ligand_efficiency_sa>
-1.10745036478901

> <r_i_glide_ligand_efficiency_ln>
-2.16578534450474

> <r_i_glide_gscore>
-8.95659276514347

> <r_i_glide_lipo>
-3.76905803946722

> <r_i_glide_hbond>
-0.166938590938467

> <r_i_glide_metal>
0

> <r_i_glide_rewards>
-2.02540739203002

> <r_i_glide_evdw>
-46.6834373474121

> <r_i_glide_ecoul>
-7.82162046432495

> <r_i_glide_erotb>
0.528188471169106

> <r_i_glide_esite>
-0.0159622768575208

> <r_i_glide_emodel>
-80.5189188036203

> <r_i_glide_energy>
-54.5050578117371

> <r_i_glide_einternal>
4.66307401657104

> <i_i_glide_confnum>
2

> <i_i_glide_posenum>
112

> <r_i_glide_eff_state_penalty>
0

> <s_user_duplicate_titles>
CHEMBL1952_lig389,CHEMBL1952_lig389,273189

> <i_f3d_flags>
0

> <s_m_subgroup_title>
dock_pv

> <s_m_subgroupid>
dock_pv

> <b_m_subgroup_collapsed>
1

$$$$
CHEMBL1952_lig400
                    3D
 Schrodinger Suite 2021-1.
 52 56  0  0  1  0            999 V2000
   14.1970   11.6999   37.6974 S   0  0  0  0  0  0
   13.4766   19.0278   32.8500 N   0  0  0  0  0  0
   12.6314   19.3930   31.8401 C   0  0  0  0  0  0
   16.8577   15.4047   32.6282 N   0  0  0  0  0  0
   15.7839   16.1703   32.1385 C   0  0  0  0  0  0
   14.2262   17.9740   32.3865 C   0  0  0  0  0  0
   12.7304   18.6502   30.7736 N   0  0  0  0  0  0
   15.2575   17.2091   32.9286 C   0  0  0  0  0  0
   13.7290   17.7655   31.0823 C   0  0  0  0  0  0
   15.2905   15.9466   30.8221 C   0  0  0  0  0  0
   15.1546   12.7703   36.6259 C   0  0  0  0  0  0
   14.2732   16.7516   30.2972 C   0  0  0  0  0  0
   14.9436   10.4471   37.8770 O   0  0  0  0  0  0
   13.7795   12.5000   38.8559 O   0  0  0  0  0  0
   12.7258   11.3270   36.7521 C   0  0  0  0  0  0
   17.3832   15.3741   34.0004 C   0  0  0  0  0  0
   11.7921   20.4427   31.9911 N   0  0  0  0  0  0
   14.7323   14.0846   36.4291 C   0  0  0  0  0  0
   16.3061   12.2998   35.9914 C   0  0  0  0  0  0
   16.5991   14.4599   34.9406 C   0  0  0  0  0  0
   17.3103   14.2048   31.9173 C   0  0  0  0  0  0
   15.4529   14.9274   35.5894 C   0  0  0  0  0  0
   17.0310   13.1472   35.1558 C   0  0  0  0  0  0
   15.8129   14.8118   29.9512 C   0  0  0  0  0  0
   17.1959   14.3605   30.4073 C   0  0  0  0  0  0
   12.6800   10.1722   35.9691 C   0  0  0  0  0  0
   11.6427   12.2094   36.7788 C   0  0  0  0  0  0
   10.5182   11.9432   36.0013 C   0  0  0  0  0  0
   11.5558    9.9108   35.1909 C   0  0  0  0  0  0
   10.4817   10.7980   35.2078 C   0  0  0  0  0  0
   13.4947   19.5189   33.7376 H   0  0  0  0  0  0
   15.6313   17.4308   33.9135 H   0  0  0  0  0  0
   13.8980   16.5855   29.2978 H   0  0  0  0  0  0
   18.4336   15.0756   34.0004 H   0  0  0  0  0  0
   17.4156   16.3813   34.3907 H   0  0  0  0  0  0
   11.0737   20.6136   31.2978 H   0  0  0  0  0  0
   11.7937   21.0074   32.8310 H   0  0  0  0  0  0
   13.8466   14.4494   36.9269 H   0  0  0  0  0  0
   16.6445   11.2849   36.1433 H   0  0  0  0  0  0
   16.5936   13.4237   32.1602 H   0  0  0  0  0  0
   18.2758   13.8163   32.2492 H   0  0  0  0  0  0
   15.1119   15.9404   35.4507 H   0  0  0  0  0  0
   17.9193   12.7779   34.6621 H   0  0  0  0  0  0
   15.1170   13.9761   29.9906 H   0  0  0  0  0  0
   15.8527   15.1115   28.9024 H   0  0  0  0  0  0
   17.3941   13.3826   29.9908 H   0  0  0  0  0  0
   17.9759   15.0288   30.0400 H   0  0  0  0  0  0
   13.5170    9.4887   35.9457 H   0  0  0  0  0  0
   11.6756   13.1044   37.3836 H   0  0  0  0  0  0
    9.6806   12.6255   36.0065 H   0  0  0  0  0  0
   11.5203    9.0284   34.5689 H   0  0  0  0  0  0
    9.6130   10.5947   34.5983 H   0  0  0  0  0  0
  1 11  1  0  0  0
  1 13  2  0  0  0
  1 14  2  0  0  0
  1 15  1  0  0  0
  2  6  1  0  0  0
  2  3  1  0  0  0
  2 31  1  0  0  0
  3 17  1  0  0  0
  3  7  2  0  0  0
  4 16  1  0  0  0
  4  5  1  0  0  0
  4 21  1  0  0  0
  5  8  2  0  0  0
  5 10  1  0  0  0
  6  8  1  0  0  0
  6  9  2  0  0  0
  7  9  1  0  0  0
  8 32  1  0  0  0
  9 12  1  0  0  0
 10 12  2  0  0  0
 10 24  1  0  0  0
 11 18  1  0  0  0
 11 19  2  0  0  0
 12 33  1  0  0  0
 15 26  2  0  0  0
 15 27  1  0  0  0
 16 20  1  0  0  0
 16 34  1  0  0  0
 16 35  1  0  0  0
 17 36  1  0  0  0
 17 37  1  0  0  0
 18 22  2  0  0  0
 18 38  1  0  0  0
 19 23  1  0  0  0
 19 39  1  0  0  0
 20 23  2  0  0  0
 20 22  1  0  0  0
 21 25  1  0  0  0
 21 40  1  0  0  0
 21 41  1  0  0  0
 22 42  1  0  0  0
 23 43  1  0  0  0
 24 25  1  0  0  0
 24 44  1  0  0  0
 24 45  1  0  0  0
 25 46  1  0  0  0
 25 47  1  0  0  0
 26 29  1  0  0  0
 26 48  1  0  0  0
 27 28  2  0  0  0
 27 49  1  0  0  0
 28 30  1  0  0  0
 28 50  1  0  0  0
 29 30  2  0  0  0
 29 51  1  0  0  0
 30 52  1  0  0  0
M  END
> <s_m_entry_id>
40915

> <s_m_entry_name>
dock_pv.32

> <s_m_Source_Path>
/home/csk/Desktop/cluster/DUD-E-result/tysy

> <s_m_Source_File>
dock_pv.maegz

> <i_m_Source_File_Index>
32

> <chembl_id>
CHEMBL301256

> <chembl_pref_name>
None

> <i_lp_mmshare_version>
53161

> <r_lp_tautomer_probability>
1

> <s_lp_Force_Field>
OPLS_2005

> <r_lp_Energy>
16.329876

> <b_lp_Chiralities_Consistent>
1

> <s_lp_Variant>
CHEMBL1952_lig400-1

> <s_i_glide_gridfile>
glide-grid_1syn

> <i_i_glide_lignum>
787

> <i_i_glide_rotatable_bonds>
4

> <r_i_docking_score>
-8.94358990110413

> <r_i_glide_ligand_efficiency>
-0.298119663370138

> <r_i_glide_ligand_efficiency_sa>
-0.926327107637506

> <r_i_glide_ligand_efficiency_ln>
-2.03208107374782

> <r_i_glide_gscore>
-8.94358990110413

> <r_i_glide_lipo>
-4.26251838452616

> <r_i_glide_hbond>
-0.38834115285262

> <r_i_glide_metal>
0

> <r_i_glide_rewards>
-1.64709953543307

> <r_i_glide_evdw>
-48.7880859375

> <r_i_glide_ecoul>
-4.2964506149292

> <r_i_glide_erotb>
0.451604890437145

> <r_i_glide_esite>
-0.0133638296150457

> <r_i_glide_emodel>
-80.9833026149376

> <r_i_glide_energy>
-53.0845365524292

> <r_i_glide_einternal>
2.59101033210754

> <i_i_glide_confnum>
32

> <i_i_glide_posenum>
133

> <r_i_glide_eff_state_penalty>
0

> <s_user_duplicate_titles>
CHEMBL1952_lig400

> <i_f3d_flags>
0

> <s_m_subgroup_title>
dock_pv

> <s_m_subgroupid>
dock_pv

> <b_m_subgroup_collapsed>
1

$$$$
CHEMBL1952_lig248
                    3D
 Schrodinger Suite 2021-1.
 58 60  0  0  1  0            999 V2000
   16.3580   11.1603   35.9910 C   0  0  0  0  0  0
   15.4190   10.3365   36.7106 C   0  0  0  0  0  0
   15.7920    9.4280   37.4542 O   0  0  0  0  0  0
   14.1294   10.6570   36.5013 N   0  0  0  0  0  0
   12.9623   10.0160   37.1140 C   0  0  1  0  0  0
   12.3147   11.0059   38.1256 C   0  0  0  0  0  0
   11.9806    9.5201   36.0244 C   0  0  0  0  0  0
   12.5920    8.6280   35.1910 O   0  0  0  0  0  0
   10.8152    9.8483   35.9590 O   0  0  0  0  0  0
   13.2219   11.3729   39.3229 C   0  0  0  0  0  0
   12.6350   12.4931   40.1800 C   0  0  0  0  0  0
   12.9529   13.7308   39.7038 O   0  0  0  0  0  0
   11.9617   12.3012   41.1910 O   0  0  0  0  0  0
   13.9264   17.0294   29.1886 N   0  0  0  0  0  0
   13.2930   17.9665   29.7833 C   0  0  0  0  0  0
   13.3678   18.2280   31.1339 N   0  0  0  0  0  0
   14.8163   16.1839   29.8637 C   0  0  0  0  0  0
   15.4522   15.2700   29.3431 O   0  0  0  0  0  0
   14.9915   16.4734   31.3487 C   0  0  0  0  0  0
   14.2343   17.4915   31.9407 C   0  0  0  0  0  0
   14.3685   17.7799   33.2894 C   0  0  0  0  0  0
   15.2993   17.0722   34.0440 C   0  0  0  0  0  0
   16.1121   16.0846   33.4693 C   0  0  0  0  0  0
   15.9223   15.7599   32.1174 C   0  0  0  0  0  0
   17.2095   15.4621   34.3472 C   0  0  0  0  0  0
   17.7199   14.1381   33.9509 N   0  0  0  0  0  0
   12.3923   18.8650   28.9740 C   0  0  0  0  0  0
   17.4883   13.0012   34.7127 C   0  0  0  0  0  0
   16.0353   12.8432   35.6607 S   0  0  0  0  0  0
   17.6323   10.8154   35.5488 C   0  0  0  0  0  0
   18.2404   11.8268   34.7911 C   0  0  0  0  0  0
   18.7610   14.1778   32.9097 C   0  0  0  0  0  0
   20.1908   14.5555   33.3408 C   0  0  0  0  0  0
   20.7769   13.8280   34.3910 O   0  0  0  0  0  0
   13.9270   11.3808   35.8283 H   0  0  0  0  0  0
   13.2704    9.1222   37.6604 H   0  0  0  0  0  0
   11.3955   10.5704   38.5230 H   0  0  0  0  0  0
   12.0107   11.9160   37.6036 H   0  0  0  0  0  0
   11.9526    8.1890   34.6090 H   0  0  0  0  0  0
   14.2125   11.6804   38.9893 H   0  0  0  0  0  0
   13.3739   10.4930   39.9489 H   0  0  0  0  0  0
   13.4748   13.7019   38.8984 H   0  0  0  0  0  0
   12.8440   18.9917   31.5292 H   0  0  0  0  0  0
   13.7784   18.5612   33.7479 H   0  0  0  0  0  0
   15.3920   17.3192   35.0908 H   0  0  0  0  0  0
   16.4980   14.9740   31.6531 H   0  0  0  0  0  0
   16.8437   15.4249   35.3736 H   0  0  0  0  0  0
   18.0360   16.1712   34.3907 H   0  0  0  0  0  0
   12.5920   18.7728   27.9059 H   0  0  0  0  0  0
   11.3448   18.6279   29.1573 H   0  0  0  0  0  0
   12.5427   19.9108   29.2363 H   0  0  0  0  0  0
   18.0796    9.8433   35.7011 H   0  0  0  0  0  0
   19.1915   11.6917   34.2968 H   0  0  0  0  0  0
   18.8274   13.1875   32.4574 H   0  0  0  0  0  0
   18.5086   14.7329   32.0087 H   0  0  0  0  0  0
   20.8193   15.0279   32.5855 H   0  0  0  0  0  0
   20.0013   15.4419   33.9331 H   0  0  0  0  0  0
   21.0713   12.9766   34.0128 H   0  0  0  0  0  0
  1  2  1  0  0  0
  1 29  1  0  0  0
  1 30  2  0  0  0
  2  3  2  0  0  0
  2  4  1  0  0  0
  4  5  1  0  0  0
  4 35  1  0  0  0
  5  6  1  0  0  0
  5  7  1  0  0  0
  5 36  1  0  0  0
  6 10  1  0  0  0
  6 37  1  0  0  0
  6 38  1  0  0  0
  7  9  2  0  0  0
  7  8  1  0  0  0
  8 39  1  0  0  0
 10 11  1  0  0  0
 10 40  1  0  0  0
 10 41  1  0  0  0
 11 12  1  0  0  0
 11 13  2  0  0  0
 12 42  1  0  0  0
 14 15  2  0  0  0
 14 17  1  0  0  0
 15 16  1  0  0  0
 15 27  1  0  0  0
 16 20  1  0  0  0
 16 43  1  0  0  0
 17 18  2  0  0  0
 17 19  1  0  0  0
 19 24  1  0  0  0
 19 20  2  0  0  0
 20 21  1  0  0  0
 21 22  2  0  0  0
 21 44  1  0  0  0
 22 23  1  0  0  0
 22 45  1  0  0  0
 23 24  2  0  0  0
 23 25  1  0  0  0
 24 46  1  0  0  0
 25 26  1  0  0  0
 25 47  1  0  0  0
 25 48  1  0  0  0
 26 28  1  0  0  0
 26 32  1  0  0  0
 27 49  1  0  0  0
 27 50  1  0  0  0
 27 51  1  0  0  0
 28 29  1  0  0  0
 28 31  2  0  0  0
 30 31  1  0  0  0
 30 52  1  0  0  0
 31 53  1  0  0  0
 32 33  1  0  0  0
 32 54  1  0  0  0
 32 55  1  0  0  0
 33 34  1  0  0  0
 33 56  1  0  0  0
 33 57  1  0  0  0
 34 58  1  0  0  0
M  END
> <s_m_entry_id>
40916

> <s_m_entry_name>
dock_pv.33

> <s_m_Source_Path>
/home/csk/Desktop/cluster/DUD-E-result/tysy

> <s_m_Source_File>
dock_pv.maegz

> <i_m_Source_File_Index>
33

> <chembl_id>
CHEMBL1095267

> <chembl_pref_name>
None

> <i_lp_mmshare_version>
53161

> <r_lp_tautomer_probability>
0.116051

> <s_lp_Force_Field>
OPLS_2005

> <r_lp_Energy>
15.052451

> <b_lp_Chiralities_Consistent>
1

> <s_lp_Variant>
CHEMBL1952_lig248-2

> <s_i_glide_gridfile>
glide-grid_1syn

> <i_i_glide_lignum>
493

> <i_i_glide_rotatable_bonds>
15

> <r_i_docking_score>
-8.92949871536975

> <r_i_glide_ligand_efficiency>
-0.262632315157934

> <r_i_glide_ligand_efficiency_sa>
-0.850826746582362

> <r_i_glide_ligand_efficiency_ln>
-1.97277673018036

> <r_i_glide_gscore>
-8.92949871536975

> <r_i_glide_lipo>
-3.1739560614686

> <r_i_glide_hbond>
-0.441658551925946

> <r_i_glide_metal>
0

> <r_i_glide_rewards>
-0.693190426591246

> <r_i_glide_evdw>
-55.2434349060059

> <r_i_glide_ecoul>
-19.0531368255615

> <r_i_glide_erotb>
1.02261605374996

> <r_i_glide_esite>
-0.0231674599993977

> <r_i_glide_emodel>
-111.497942001245

> <r_i_glide_energy>
-74.2965717315674

> <r_i_glide_einternal>
10.389552116394

> <i_i_glide_confnum>
15

> <i_i_glide_posenum>
101

> <r_i_glide_eff_state_penalty>
0

> <s_user_duplicate_titles>
CHEMBL1952_lig248,CHEMBL1952_lig248

> <i_f3d_flags>
0

> <s_m_subgroup_title>
dock_pv

> <s_m_subgroupid>
dock_pv

> <b_m_subgroup_collapsed>
1

$$$$
CHEMBL1952_lig332
                    3D
 Schrodinger Suite 2021-1.
 57 60  0  0  1  0            999 V2000
   14.7916   17.0864   31.8967 C   0  0  0  0  0  0
   14.3801   17.9655   32.9730 C   0  0  0  0  0  0
   13.4578   18.9304   32.7911 N   0  0  0  0  0  0
   13.1404   18.2715   30.5046 N   0  0  0  0  0  0
   14.0772   17.2964   30.6655 C   0  0  0  0  0  0
   15.8102   16.0704   31.9367 C   0  0  0  0  0  0
   15.5386   11.8575   36.6002 C   0  0  0  0  0  0
   16.1904   13.3648   35.9909 S   0  0  0  0  0  0
   14.3936   11.7895   37.4824 C   0  0  0  0  0  0
   12.9021   19.0516   31.5775 C   0  0  0  0  0  0
   17.5528   12.5401   35.2807 C   0  0  0  0  0  0
   13.6218   12.8948   37.5458 N   0  0  0  0  0  0
   16.3513   10.7876   36.2239 C   0  0  0  0  0  0
   12.7790   13.0828   39.9130 C   0  0  0  0  0  0
   17.4798   11.1721   35.4908 C   0  0  0  0  0  0
   12.4359   13.1005   38.3990 C   0  0  2  0  0  0
   14.9036   17.8358   34.2243 O   0  0  0  0  0  0
   16.0200   15.2558   30.7758 C   0  0  0  0  0  0
   16.6719   15.8261   33.0597 C   0  0  0  0  0  0
    9.4109   13.6522   38.9098 C   0  0  0  0  0  0
   18.5710   13.2125   34.6528 N   0  0  0  0  0  0
   14.3318   16.4882   29.5463 C   0  0  0  0  0  0
   14.1844   10.7764   38.1515 O   0  0  0  0  0  0
   12.2797   12.3419   40.7339 O   0  0  0  0  0  0
    9.3918   14.2279   39.9951 O   0  0  0  0  0  0
   15.2665   15.4718   29.6060 C   0  0  0  0  0  0
   11.2829   12.1430   37.9570 C   0  0  0  0  0  0
   16.9910   14.2316   30.7923 C   0  0  0  0  0  0
   17.6447   14.8241   33.0315 C   0  0  0  0  0  0
    9.9294   12.2306   38.7061 C   0  0  0  0  0  0
   13.6875   14.0671   40.1837 O   0  0  0  0  0  0
   18.5781   14.6065   34.2157 C   0  0  0  0  0  0
    8.9908   14.2280   37.7539 O   0  0  0  0  0  0
   17.7922   14.0325   31.9018 C   0  0  0  0  0  0
   11.9497   20.2164   31.4128 C   0  0  0  0  0  0
   12.1032   14.1164   38.1803 H   0  0  0  0  0  0
   13.8522   13.6504   36.9172 H   0  0  0  0  0  0
   16.1489    9.7618   36.4971 H   0  0  0  0  0  0
   18.2273   10.4775   35.1378 H   0  0  0  0  0  0
   14.4925   18.4953   34.7903 H   0  0  0  0  0  0
   16.6235   16.4114   33.9565 H   0  0  0  0  0  0
   19.4650   12.7580   34.5069 H   0  0  0  0  0  0
   13.7915   16.6657   28.6277 H   0  0  0  0  0  0
   15.4412   14.8523   28.7374 H   0  0  0  0  0  0
   11.6214   11.1074   38.0190 H   0  0  0  0  0  0
   11.0849   12.3046   36.8946 H   0  0  0  0  0  0
   17.1112   13.5965   29.9316 H   0  0  0  0  0  0
   10.0192   11.7634   39.6874 H   0  0  0  0  0  0
    9.1734   11.6530   38.1713 H   0  0  0  0  0  0
   14.0011   14.4832   39.3772 H   0  0  0  0  0  0
   18.3300   15.2621   35.0517 H   0  0  0  0  0  0
   19.5895   14.8721   33.9040 H   0  0  0  0  0  0
    8.6215   15.1024   37.9485 H   0  0  0  0  0  0
   18.5434   13.2553   31.8795 H   0  0  0  0  0  0
   11.7135   20.3959   30.3635 H   0  0  0  0  0  0
   11.0294   20.0316   31.9723 H   0  0  0  0  0  0
   12.3977   21.1287   31.8084 H   0  0  0  0  0  0
  1  2  1  0  0  0
  1  5  2  0  0  0
  1  6  1  0  0  0
  2  3  2  0  0  0
  2 17  1  0  0  0
  3 10  1  0  0  0
  4  5  1  0  0  0
  4 10  2  0  0  0
  5 22  1  0  0  0
  6 18  2  0  0  0
  6 19  1  0  0  0
  7  8  1  0  0  0
  7  9  1  0  0  0
  7 13  2  0  0  0
  8 11  1  0  0  0
  9 12  1  0  0  0
  9 23  2  0  0  0
 10 35  1  0  0  0
 11 21  1  0  0  0
 11 15  2  0  0  0
 12 16  1  0  0  0
 12 37  1  0  0  0
 13 15  1  0  0  0
 13 38  1  0  0  0
 14 16  1  0  0  0
 14 24  2  0  0  0
 14 31  1  0  0  0
 15 39  1  0  0  0
 16 27  1  0  0  0
 16 36  1  0  0  0
 17 40  1  0  0  0
 18 26  1  0  0  0
 18 28  1  0  0  0
 19 29  2  0  0  0
 19 41  1  0  0  0
 20 30  1  0  0  0
 20 25  2  0  0  0
 20 33  1  0  0  0
 21 32  1  0  0  0
 21 42  1  0  0  0
 22 26  2  0  0  0
 22 43  1  0  0  0
 26 44  1  0  0  0
 27 30  1  0  0  0
 27 45  1  0  0  0
 27 46  1  0  0  0
 28 34  2  0  0  0
 28 47  1  0  0  0
 29 32  1  0  0  0
 29 34  1  0  0  0
 30 48  1  0  0  0
 30 49  1  0  0  0
 31 50  1  0  0  0
 32 51  1  0  0  0
 32 52  1  0  0  0
 33 53  1  0  0  0
 34 54  1  0  0  0
 35 55  1  0  0  0
 35 56  1  0  0  0
 35 57  1  0  0  0
M  END
> <s_m_entry_id>
40917

> <s_m_entry_name>
dock_pv.34

> <s_m_Source_Path>
/home/csk/Desktop/cluster/DUD-E-result/tysy

> <s_m_Source_File>
dock_pv.maegz

> <i_m_Source_File_Index>
34

> <chembl_id>
CHEMBL169506

> <chembl_pref_name>
None

> <i_lp_mmshare_version>
53161

> <r_lp_tautomer_probability>
1

> <s_lp_Force_Field>
OPLS_2005

> <r_lp_Energy>
18.767365

> <b_lp_Chiralities_Consistent>
1

> <s_lp_Variant>
CHEMBL1952_lig332-1

> <s_i_glide_gridfile>
glide-grid_1syn

> <i_i_glide_lignum>
607

> <i_i_glide_rotatable_bonds>
13

> <r_i_docking_score>
-8.90792428943946

> <r_i_glide_ligand_efficiency>
-0.254512122555413

> <r_i_glide_ligand_efficiency_sa>
-0.832526028638962

> <r_i_glide_ligand_efficiency_ln>
-1.95548708225973

> <r_i_glide_gscore>
-8.90792428943946

> <r_i_glide_lipo>
-4.18969474658005

> <r_i_glide_hbond>
-0.184057233410779

> <r_i_glide_metal>
0

> <r_i_glide_rewards>
-0.770118474708157

> <r_i_glide_evdw>
-59.6386680603027

> <r_i_glide_ecoul>
-10.3980712890625

> <r_i_glide_erotb>
0.833325479247317

> <r_i_glide_esite>
-0.0557352176132823

> <r_i_glide_emodel>
-106.277584015578

> <r_i_glide_energy>
-70.0367393493652

> <r_i_glide_einternal>
8.05814933776855

> <i_i_glide_confnum>
99

> <i_i_glide_posenum>
112

> <r_i_glide_eff_state_penalty>
0

> <s_user_duplicate_titles>
CHEMBL1952_lig332,281133

> <i_f3d_flags>
0

> <s_m_subgroup_title>
dock_pv

> <s_m_subgroupid>
dock_pv

> <b_m_subgroup_collapsed>
1

$$$$
CHEMBL1952_lig174
                    3D
 Schrodinger Suite 2021-1.
 33 35  0  0  1  0            999 V2000
   15.6733   12.7343   36.1127 C   0  0  0  0  0  0
   14.9092   13.8955   35.9925 C   0  0  0  0  0  0
   15.3661   14.9538   35.2071 C   0  0  0  0  0  0
   16.5920   14.8521   34.5465 C   0  0  0  0  0  0
   17.3698   13.6982   34.6846 C   0  0  0  0  0  0
   16.9014   12.6326   35.4569 C   0  0  0  0  0  0
   17.2016   16.2024   33.5910 S   0  0  0  0  0  0
   15.9719   16.3722   32.3272 C   0  0  0  0  0  0
   14.7567   16.1343   30.0431 S   0  0  0  0  0  0
   16.0915   15.7176   31.0950 C   0  0  0  0  0  0
   14.1521   17.2871   31.1809 C   0  0  0  0  0  0
   14.8995   17.2908   32.3585 C   0  0  0  0  0  0
   14.5073   18.2348   33.4039 C   0  0  0  0  0  0
   13.4702   19.0261   32.9999 N   0  0  0  0  0  0
   12.8025   19.0025   31.7999 C   0  0  0  0  0  0
   13.1024   18.1219   30.9065 N   0  0  0  0  0  0
   17.2132   14.8162   30.6172 C   0  0  0  0  0  0
   11.7923   19.9589   31.5914 N   0  0  0  0  0  0
   14.9911   18.3992   34.5131 O   0  0  0  0  0  0
   16.9564   13.3383   30.9091 C   0  0  0  0  0  0
   17.8249   11.1800   35.5901 Cl  0  0  0  0  0  0
   15.3134   11.9135   36.7148 H   0  0  0  0  0  0
   13.9627   13.9772   36.5057 H   0  0  0  0  0  0
   14.7731   15.8520   35.1270 H   0  0  0  0  0  0
   18.3221   13.6202   34.1790 H   0  0  0  0  0  0
   13.2036   19.7159   33.7008 H   0  0  0  0  0  0
   17.3922   14.9589   29.5537 H   0  0  0  0  0  0
   18.1509   15.0979   31.0982 H   0  0  0  0  0  0
   11.1373   19.8255   30.8276 H   0  0  0  0  0  0
   11.3681   20.4147   32.3828 H   0  0  0  0  0  0
   17.8605   12.7436   30.7910 H   0  0  0  0  0  0
   16.6218   13.1936   31.9345 H   0  0  0  0  0  0
   16.1921   12.9371   30.2429 H   0  0  0  0  0  0
  1  6  1  0  0  0
  1  2  2  0  0  0
  1 22  1  0  0  0
  2  3  1  0  0  0
  2 23  1  0  0  0
  3  4  2  0  0  0
  3 24  1  0  0  0
  4  7  1  0  0  0
  4  5  1  0  0  0
  5  6  2  0  0  0
  5 25  1  0  0  0
  6 21  1  0  0  0
  7  8  1  0  0  0
  8 10  2  0  0  0
  8 12  1  0  0  0
  9 10  1  0  0  0
  9 11  1  0  0  0
 10 17  1  0  0  0
 11 12  2  0  0  0
 11 16  1  0  0  0
 12 13  1  0  0  0
 13 14  1  0  0  0
 13 19  2  0  0  0
 14 15  1  0  0  0
 14 26  1  0  0  0
 15 16  2  0  0  0
 15 18  1  0  0  0
 17 20  1  0  0  0
 17 27  1  0  0  0
 17 28  1  0  0  0
 18 29  1  0  0  0
 18 30  1  0  0  0
 20 31  1  0  0  0
 20 32  1  0  0  0
 20 33  1  0  0  0
M  END
> <s_m_entry_id>
40918

> <s_m_entry_name>
dock_pv.35

> <s_m_Source_Path>
/home/csk/Desktop/cluster/DUD-E-result/tysy

> <s_m_Source_File>
dock_pv.maegz

> <i_m_Source_File_Index>
35

> <chembl_id>
CHEMBL551985

> <chembl_pref_name>
None

> <i_lp_mmshare_version>
53161

> <r_lp_tautomer_probability>
1

> <s_lp_Force_Field>
OPLS_2005

> <r_lp_Energy>
12.395342

> <b_lp_Chiralities_Consistent>
1

> <s_lp_Variant>
CHEMBL1952_lig174-1

> <s_i_glide_gridfile>
glide-grid_1syn

> <i_i_glide_lignum>
351

> <i_i_glide_rotatable_bonds>
3

> <r_i_docking_score>
-8.9062135207065

> <r_i_glide_ligand_efficiency>
-0.424105405747929

> <r_i_glide_ligand_efficiency_sa>
-1.17007465606445

> <r_i_glide_ligand_efficiency_ln>
-2.20204329629572

> <r_i_glide_gscore>
-8.9062135207065

> <r_i_glide_lipo>
-4.01692047709474

> <r_i_glide_hbond>
-0.445486375643228

> <r_i_glide_metal>
0

> <r_i_glide_rewards>
-1.63524422114992

> <r_i_glide_evdw>
-42.3104858398438

> <r_i_glide_ecoul>
-6.69393396377563

> <r_i_glide_erotb>
0.331244321871711

> <r_i_glide_esite>
-0.0201923821317949

> <r_i_glide_emodel>
-75.9851723018176

> <r_i_glide_energy>
-49.0044198036194

> <r_i_glide_einternal>
1.18222463130951

> <i_i_glide_confnum>
8

> <i_i_glide_posenum>
282

> <r_i_glide_eff_state_penalty>
0

> <s_user_duplicate_titles>
CHEMBL1952_lig174,560033

> <i_f3d_flags>
0

> <s_m_subgroup_title>
dock_pv

> <s_m_subgroupid>
dock_pv

> <b_m_subgroup_collapsed>
1

$$$$
CHEMBL1952_lig158
                    3D
 Schrodinger Suite 2021-1.
 30 32  0  0  1  0            999 V2000
   13.5497   19.0269   32.9409 N   0  0  0  0  0  0
   12.8248   18.9601   31.7799 C   0  0  0  0  0  0
   13.0686   18.0357   30.9126 N   0  0  0  0  0  0
   14.5816   18.2282   33.3317 C   0  0  0  0  0  0
   14.8827   17.1983   32.3411 C   0  0  0  0  0  0
   14.0934   17.1713   31.1931 C   0  0  0  0  0  0
   14.5903   15.9163   30.1147 S   0  0  0  0  0  0
   15.8893   15.4280   31.1825 C   0  0  0  0  0  0
   15.8946   16.2105   32.3460 C   0  0  0  0  0  0
   16.8307   14.3144   30.7794 C   0  0  0  0  0  0
   17.1573   16.0550   33.5909 S   0  0  0  0  0  0
   11.8197   19.9242   31.5909 N   0  0  0  0  0  0
   15.1318   18.4563   34.3926 O   0  0  0  0  0  0
   16.5419   14.7564   34.6103 C   0  0  0  0  0  0
   15.3155   14.8887   35.2644 C   0  0  0  0  0  0
   14.8485   13.8564   36.0782 C   0  0  0  0  0  0
   15.6067   12.6956   36.2393 C   0  0  0  0  0  0
   16.8356   12.5678   35.5908 C   0  0  0  0  0  0
   17.3108   13.6040   34.7866 C   0  0  0  0  0  0
   17.7564   11.1191   35.7697 Cl  0  0  0  0  0  0
   13.3288   14.0077   36.8808 Cl  0  0  0  0  0  0
   13.3243   19.7408   33.6294 H   0  0  0  0  0  0
   17.1991   13.7552   31.6403 H   0  0  0  0  0  0
   16.3566   13.5887   30.1185 H   0  0  0  0  0  0
   17.7031   14.7039   30.2573 H   0  0  0  0  0  0
   11.1258   19.7822   30.8627 H   0  0  0  0  0  0
   11.4419   20.4081   32.3915 H   0  0  0  0  0  0
   14.7332   15.7900   35.1496 H   0  0  0  0  0  0
   15.2407   11.8979   36.8682 H   0  0  0  0  0  0
   18.2615   13.5029   34.2830 H   0  0  0  0  0  0
  1  2  1  0  0  0
  1  4  1  0  0  0
  1 22  1  0  0  0
  2 12  1  0  0  0
  2  3  2  0  0  0
  3  6  1  0  0  0
  4 13  2  0  0  0
  4  5  1  0  0  0
  5  6  2  0  0  0
  5  9  1  0  0  0
  6  7  1  0  0  0
  7  8  1  0  0  0
  8 10  1  0  0  0
  8  9  2  0  0  0
  9 11  1  0  0  0
 10 23  1  0  0  0
 10 24  1  0  0  0
 10 25  1  0  0  0
 11 14  1  0  0  0
 12 26  1  0  0  0
 12 27  1  0  0  0
 14 15  2  0  0  0
 14 19  1  0  0  0
 15 16  1  0  0  0
 15 28  1  0  0  0
 16 17  2  0  0  0
 16 21  1  0  0  0
 17 18  1  0  0  0
 17 29  1  0  0  0
 18 19  2  0  0  0
 18 20  1  0  0  0
 19 30  1  0  0  0
M  END
> <s_m_entry_id>
40919

> <s_m_entry_name>
dock_pv.36

> <s_m_Source_Path>
/home/csk/Desktop/cluster/DUD-E-result/tysy

> <s_m_Source_File>
dock_pv.maegz

> <i_m_Source_File_Index>
36

> <chembl_id>
CHEMBL492839

> <chembl_pref_name>
None

> <i_lp_mmshare_version>
53161

> <r_lp_tautomer_probability>
1

> <s_lp_Force_Field>
OPLS_2005

> <r_lp_Energy>
15.552984

> <b_lp_Chiralities_Consistent>
1

> <s_lp_Variant>
CHEMBL1952_lig158-1

> <s_i_glide_gridfile>
glide-grid_1syn

> <i_i_glide_lignum>
335

> <i_i_glide_rotatable_bonds>
2

> <r_i_docking_score>
-8.90597234085159

> <r_i_glide_ligand_efficiency>
-0.424093920992933

> <r_i_glide_ligand_efficiency_sa>
-1.17004297049626

> <r_i_glide_ligand_efficiency_ln>
-2.20198366506395

> <r_i_glide_gscore>
-8.90597234085159

> <r_i_glide_lipo>
-4.06230427418609

> <r_i_glide_hbond>
-0.456

> <r_i_glide_metal>
0

> <r_i_glide_rewards>
-1.44819003163595

> <r_i_glide_evdw>
-43.6724548339844

> <r_i_glide_ecoul>
-6.92443466186523

> <r_i_glide_erotb>
0.298448702210019

> <r_i_glide_esite>
-0.0156387962605709

> <r_i_glide_emodel>
-78.4314815924925

> <r_i_glide_energy>
-50.5968894958496

> <r_i_glide_einternal>
0.736029803752899

> <i_i_glide_confnum>
5

> <i_i_glide_posenum>
61

> <r_i_glide_eff_state_penalty>
0

> <s_user_duplicate_titles>
CHEMBL1952_lig158

> <i_f3d_flags>
0

> <s_m_subgroup_title>
dock_pv

> <s_m_subgroupid>
dock_pv

> <b_m_subgroup_collapsed>
1

$$$$
CHEMBL1952_lig147
                    3D
 Schrodinger Suite 2021-1.
 35 37  0  0  1  0            999 V2000
   15.8799   16.2932   32.1655 N   0  0  0  0  0  0
   13.5568   19.0280   32.9252 N   0  0  0  0  0  0
   12.8190   18.9851   31.7633 C   0  0  0  0  0  0
   13.0582   18.0779   30.8738 N   0  0  0  0  0  0
   14.5912   18.2233   33.3034 C   0  0  0  0  0  0
   11.8079   19.9486   31.5908 N   0  0  0  0  0  0
   15.1315   18.3700   34.3899 O   0  0  0  0  0  0
   14.8861   17.2533   32.2555 C   0  0  0  0  0  0
   14.0962   17.2165   31.1073 C   0  0  0  0  0  0
   14.6087   16.1905   30.3154 C   0  0  0  0  0  0
   15.6993   15.6196   30.9644 C   0  0  0  0  0  0
   16.6042   14.4865   30.5245 C   0  0  0  0  0  0
   16.9695   16.0633   33.1278 C   0  0  0  0  0  0
   16.7177   14.9459   34.1331 C   0  0  0  0  0  0
   17.5479   13.8208   34.1371 C   0  0  0  0  0  0
   17.2885   12.7618   35.0006 C   0  0  0  0  0  0
   16.1906   12.8079   35.8732 C   0  0  0  0  0  0
   15.4031   13.9684   35.9097 C   0  0  0  0  0  0
   15.6605   15.0280   35.0440 C   0  0  0  0  0  0
   15.8485   11.6362   36.7175 N   0  3  0  0  0  0
   14.8933   11.7226   37.4830 O   0  0  0  0  0  0
   16.5204   10.6134   36.6058 O   0  5  0  0  0  0
   13.3447   19.7371   33.6213 H   0  0  0  0  0  0
   11.1059   19.8296   30.8659 H   0  0  0  0  0  0
   11.4939   20.5110   32.3675 H   0  0  0  0  0  0
   14.2227   15.8976   29.3515 H   0  0  0  0  0  0
   16.2763   14.0515   29.5809 H   0  0  0  0  0  0
   17.6320   14.8166   30.3794 H   0  0  0  0  0  0
   16.6242   13.6794   31.2548 H   0  0  0  0  0  0
   17.8754   15.8488   32.5598 H   0  0  0  0  0  0
   17.1777   16.9935   33.6567 H   0  0  0  0  0  0
   18.3794   13.7453   33.4487 H   0  0  0  0  0  0
   17.9268   11.8882   34.9579 H   0  0  0  0  0  0
   14.5619   14.0449   36.5810 H   0  0  0  0  0  0
   15.0209   15.8965   35.0713 H   0  0  0  0  0  0
  1 11  1  0  0  0
  1  8  1  0  0  0
  1 13  1  0  0  0
  2  3  1  0  0  0
  2  5  1  0  0  0
  2 23  1  0  0  0
  3  6  1  0  0  0
  3  4  2  0  0  0
  4  9  1  0  0  0
  5  7  2  0  0  0
  5  8  1  0  0  0
  6 24  1  0  0  0
  6 25  1  0  0  0
  8  9  2  0  0  0
  9 10  1  0  0  0
 10 11  2  0  0  0
 10 26  1  0  0  0
 11 12  1  0  0  0
 12 27  1  0  0  0
 12 28  1  0  0  0
 12 29  1  0  0  0
 13 14  1  0  0  0
 13 30  1  0  0  0
 13 31  1  0  0  0
 14 15  2  0  0  0
 14 19  1  0  0  0
 15 16  1  0  0  0
 15 32  1  0  0  0
 16 17  2  0  0  0
 16 33  1  0  0  0
 17 18  1  0  0  0
 17 20  1  0  0  0
 18 19  2  0  0  0
 18 34  1  0  0  0
 19 35  1  0  0  0
 20 21  2  0  0  0
 20 22  1  0  0  0
M  CHG  2  20   1  22  -1
M  END
> <s_m_entry_id>
40920

> <s_m_entry_name>
dock_pv.37

> <s_m_Source_Path>
/home/csk/Desktop/cluster/DUD-E-result/tysy

> <s_m_Source_File>
dock_pv.maegz

> <i_m_Source_File_Index>
37

> <chembl_id>
CHEMBL401073

> <chembl_pref_name>
None

> <i_lp_mmshare_version>
53161

> <r_lp_tautomer_probability>
1

> <s_lp_Force_Field>
OPLS_2005

> <r_lp_Energy>
23.433515

> <b_lp_Chiralities_Consistent>
1

> <s_lp_Variant>
CHEMBL1952_lig147-1

> <s_i_glide_gridfile>
glide-grid_1syn

> <i_i_glide_lignum>
324

> <i_i_glide_rotatable_bonds>
3

> <r_i_docking_score>
-8.87791166515072

> <r_i_glide_ligand_efficiency>
-0.403541439325033

> <r_i_glide_ligand_efficiency_sa>
-1.13073898337297

> <r_i_glide_ligand_efficiency_ln>
-2.17008544065899

> <r_i_glide_gscore>
-8.87791166515072

> <r_i_glide_lipo>
-3.15278103857449

> <r_i_glide_hbond>
-0.456

> <r_i_glide_metal>
0

> <r_i_glide_rewards>
-2.51222766643148

> <r_i_glide_evdw>
-41.9758224487305

> <r_i_glide_ecoul>
-7.02256870269775

> <r_i_glide_erotb>
0.410042473651756

> <r_i_glide_esite>
-0.0147690059553162

> <r_i_glide_emodel>
-76.597663986979

> <r_i_glide_energy>
-48.9983911514282

> <r_i_glide_einternal>
0.25800633430481

> <i_i_glide_confnum>
2

> <i_i_glide_posenum>
394

> <r_i_glide_eff_state_penalty>
0

> <s_user_duplicate_titles>
CHEMBL1952_lig147

> <i_f3d_flags>
0

> <s_m_subgroup_title>
dock_pv

> <s_m_subgroupid>
dock_pv

> <b_m_subgroup_collapsed>
1

$$$$
CHEMBL1952_lig335
                    3D
 Schrodinger Suite 2021-1.
 60 63  0  0  1  0            999 V2000
   14.4963   17.0468   31.8800 C   0  0  0  0  0  0
   14.1068   17.6357   33.1365 C   0  0  0  0  0  0
   13.1976   18.6291   33.1908 N   0  0  0  0  0  0
   12.8096   18.4708   30.8192 N   0  0  0  0  0  0
   13.7182   17.4608   30.7501 C   0  0  0  0  0  0
   15.5517   16.1061   31.6743 C   0  0  0  0  0  0
   12.6307   19.0274   32.0350 C   0  0  0  0  0  0
   15.3756   10.3354   36.9109 C   0  0  0  0  0  0
   14.0739   10.6445   36.7711 N   0  0  0  0  0  0
   11.9328    9.4210   36.3035 C   0  0  0  0  0  0
   12.9533    9.9011   37.3639 C   0  0  2  0  0  0
   16.3358   11.2021   36.1411 C   0  0  0  0  0  0
   14.5979   17.1071   34.2989 O   0  0  0  0  0  0
   15.6249   15.4085   30.4296 C   0  0  0  0  0  0
   16.5947   15.8727   32.6234 C   0  0  0  0  0  0
   11.1126   12.7795   39.4499 C   0  0  0  0  0  0
   13.8666   16.8101   29.5128 C   0  0  0  0  0  0
   15.7894    9.3908   37.5894 O   0  0  0  0  0  0
   10.7304    9.4328   36.4726 O   0  0  0  0  0  0
   18.9904   13.4409   33.7862 N   0  0  0  0  0  0
   11.4193   12.5159   40.6147 O   0  0  0  0  0  0
   14.7559   15.7556   29.3745 C   0  0  0  0  0  0
   12.3488   10.7041   38.5535 C   0  0  0  0  0  0
   17.4847   10.6271   35.5876 C   0  0  0  0  0  0
   16.1028   12.5728   35.9663 C   0  0  0  0  0  0
   16.5933   14.4001   30.2528 C   0  0  0  0  0  0
   17.6033   14.9416   32.3816 C   0  0  0  0  0  0
   18.1035   12.7425   34.6149 C   0  0  0  0  0  0
   11.7212   12.0843   38.2191 C   0  0  0  0  0  0
   12.5652    8.9111   35.1983 O   0  0  0  0  0  0
   18.7688   14.8167   33.3617 C   0  0  0  0  0  0
   10.1932   13.7383   39.1191 O   0  0  0  0  0  0
   16.9789   13.3356   35.1975 C   0  0  0  0  0  0
   18.3637   11.3923   34.8312 C   0  0  0  0  0  0
   17.5715   14.1805   31.2168 C   0  0  0  0  0  0
   11.6897   20.2111   32.1174 C   0  0  0  0  0  0
   13.3360    8.9694   37.7834 H   0  0  0  0  0  0
   13.8233   11.3959   36.1459 H   0  0  0  0  0  0
   15.0294   16.2677   34.1386 H   0  0  0  0  0  0
   16.6883   16.4812   33.5070 H   0  0  0  0  0  0
   13.2593   17.1240   28.6746 H   0  0  0  0  0  0
   19.7739   12.9319   33.3791 H   0  0  0  0  0  0
   14.8355   15.2384   28.4276 H   0  0  0  0  0  0
   13.1320   10.8508   39.3012 H   0  0  0  0  0  0
   11.6012   10.0864   39.0555 H   0  0  0  0  0  0
   17.6884    9.5758   35.7007 H   0  0  0  0  0  0
   15.2419   13.0569   36.4048 H   0  0  0  0  0  0
   16.5913   13.8385   29.3295 H   0  0  0  0  0  0
   10.9416   11.9555   37.4680 H   0  0  0  0  0  0
   12.4721   12.7478   37.7922 H   0  0  0  0  0  0
   11.9295    8.4629   34.6250 H   0  0  0  0  0  0
   18.6211   15.4557   34.2331 H   0  0  0  0  0  0
   19.6745   15.1666   32.8682 H   0  0  0  0  0  0
   10.0581   13.8398   38.1714 H   0  0  0  0  0  0
   16.7706   14.3851   35.0634 H   0  0  0  0  0  0
   19.2338   10.9262   34.3886 H   0  0  0  0  0  0
   18.3431   13.4450   31.0338 H   0  0  0  0  0  0
   11.4810   20.6339   31.1345 H   0  0  0  0  0  0
   10.7494   19.9078   32.5724 H   0  0  0  0  0  0
   12.1225   21.0039   32.7279 H   0  0  0  0  0  0
  1  2  1  0  0  0
  1  5  2  0  0  0
  1  6  1  0  0  0
  2  3  2  0  0  0
  2 13  1  0  0  0
  3  7  1  0  0  0
  4  5  1  0  0  0
  4  7  2  0  0  0
  5 17  1  0  0  0
  6 14  2  0  0  0
  6 15  1  0  0  0
  7 36  1  0  0  0
  8 12  1  0  0  0
  8  9  1  0  0  0
  8 18  2  0  0  0
  9 11  1  0  0  0
  9 38  1  0  0  0
 10 11  1  0  0  0
 10 19  2  0  0  0
 10 30  1  0  0  0
 11 23  1  0  0  0
 11 37  1  0  0  0
 12 24  2  0  0  0
 12 25  1  0  0  0
 13 39  1  0  0  0
 14 22  1  0  0  0
 14 26  1  0  0  0
 15 27  2  0  0  0
 15 40  1  0  0  0
 16 29  1  0  0  0
 16 21  2  0  0  0
 16 32  1  0  0  0
 17 22  2  0  0  0
 17 41  1  0  0  0
 20 31  1  0  0  0
 20 28  1  0  0  0
 20 42  1  0  0  0
 22 43  1  0  0  0
 23 29  1  0  0  0
 23 44  1  0  0  0
 23 45  1  0  0  0
 24 34  1  0  0  0
 24 46  1  0  0  0
 25 33  2  0  0  0
 25 47  1  0  0  0
 26 35  2  0  0  0
 26 48  1  0  0  0
 27 31  1  0  0  0
 27 35  1  0  0  0
 28 33  1  0  0  0
 28 34  2  0  0  0
 29 49  1  0  0  0
 29 50  1  0  0  0
 30 51  1  0  0  0
 31 52  1  0  0  0
 31 53  1  0  0  0
 32 54  1  0  0  0
 33 55  1  0  0  0
 34 56  1  0  0  0
 35 57  1  0  0  0
 36 58  1  0  0  0
 36 59  1  0  0  0
 36 60  1  0  0  0
M  END
> <s_m_entry_id>
40921

> <s_m_entry_name>
dock_pv.38

> <s_m_Source_Path>
/home/csk/Desktop/cluster/DUD-E-result/tysy

> <s_m_Source_File>
dock_pv.maegz

> <i_m_Source_File_Index>
38

> <chembl_id>
CHEMBL168907

> <chembl_pref_name>
None

> <i_lp_mmshare_version>
53161

> <r_lp_tautomer_probability>
1

> <s_lp_Force_Field>
OPLS_2005

> <r_lp_Energy>
23.405119

> <b_lp_Chiralities_Consistent>
1

> <s_lp_Variant>
CHEMBL1952_lig335-1

> <s_i_glide_gridfile>
glide-grid_1syn

> <i_i_glide_lignum>
610

> <i_i_glide_rotatable_bonds>
13

> <r_i_docking_score>
-8.8477316529381

> <r_i_glide_ligand_efficiency>
-0.245770323692725

> <r_i_glide_ligand_efficiency_sa>
-0.811515727801301

> <r_i_glide_ligand_efficiency_ln>
-1.93033600858609

> <r_i_glide_gscore>
-8.8477316529381

> <r_i_glide_lipo>
-3.80002206193405

> <r_i_glide_hbond>
-0.389112999786375

> <r_i_glide_metal>
0

> <r_i_glide_rewards>
-0.789482024036997

> <r_i_glide_evdw>
-58.703182220459

> <r_i_glide_ecoul>
-11.2186241149902

> <r_i_glide_erotb>
0.852252198752716

> <r_i_glide_esite>
-0.103414037661915

> <r_i_glide_emodel>
-107.106604181475

> <r_i_glide_energy>
-69.9218063354492

> <r_i_glide_einternal>
3.27695035934448

> <i_i_glide_confnum>
131

> <i_i_glide_posenum>
23

> <r_i_glide_eff_state_penalty>
0

> <s_user_duplicate_titles>
CHEMBL1952_lig335,281608

> <i_f3d_flags>
0

> <s_m_subgroup_title>
dock_pv

> <s_m_subgroupid>
dock_pv

> <b_m_subgroup_collapsed>
1

$$$$
CHEMBL1952_lig390
                    3D
 Schrodinger Suite 2021-1.
 36 38  0  0  1  0            999 V2000
   15.2234   16.8248   32.1672 C   0  0  0  0  0  0
   14.8660   17.8079   33.2788 C   0  0  0  0  0  0
   13.8319   18.6268   32.9695 N   0  0  0  0  0  0
   16.2819   15.8797   32.2360 C   0  0  0  0  0  0
   13.3807   17.8155   30.8667 N   0  0  0  0  0  0
   14.4350   16.9004   31.0073 C   0  0  0  0  0  0
   15.4312   11.2194   36.9330 N   0  3  0  0  0  0
   13.1126   18.6298   31.8138 C   0  0  0  0  0  0
   17.4446   15.8304   33.5914 S   0  0  0  0  0  0
   15.9392   12.3728   36.1491 C   0  0  0  0  0  0
   14.3614   11.3388   37.5240 O   0  5  0  0  0  0
   16.4985   15.0207   31.1378 C   0  0  0  0  0  0
   15.3808   17.9143   34.3826 O   0  0  0  0  0  0
   16.1016   10.1898   36.9693 O   0  0  0  0  0  0
   14.6762   16.0581   29.9304 C   0  0  0  0  0  0
   15.6956   15.1140   29.9990 C   0  0  0  0  0  0
   15.1709   13.5410   36.0151 C   0  0  0  0  0  0
   17.1941   12.3096   35.5274 C   0  0  0  0  0  0
   16.8662   14.5105   34.6073 C   0  0  0  0  0  0
   15.6342   14.6082   35.2507 C   0  0  0  0  0  0
   17.6607   13.3779   34.7683 C   0  0  0  0  0  0
   11.9550   19.5887   31.6875 C   0  0  0  0  0  0
   17.5907   13.9535   31.1422 C   0  0  0  0  0  0
   13.5844   19.2820   33.7020 H   0  0  0  0  0  0
   14.0724   16.1383   29.0408 H   0  0  0  0  0  0
   15.8582   14.4530   29.1591 H   0  0  0  0  0  0
   14.2083   13.6262   36.4953 H   0  0  0  0  0  0
   17.8160   11.4299   35.6219 H   0  0  0  0  0  0
   15.0290   15.4946   35.1475 H   0  0  0  0  0  0
   18.6263   13.3121   34.2854 H   0  0  0  0  0  0
   11.0205   19.0290   31.6414 H   0  0  0  0  0  0
   11.8942   20.2840   32.5273 H   0  0  0  0  0  0
   12.0307   20.1777   30.7724 H   0  0  0  0  0  0
   17.6080   13.4121   32.0840 H   0  0  0  0  0  0
   17.4210   13.1871   30.3909 H   0  0  0  0  0  0
   18.5771   14.3950   30.9931 H   0  0  0  0  0  0
  1  2  1  0  0  0
  1  4  1  0  0  0
  1  6  2  0  0  0
  2 13  2  0  0  0
  2  3  1  0  0  0
  3  8  1  0  0  0
  3 24  1  0  0  0
  4  9  1  0  0  0
  4 12  2  0  0  0
  5  6  1  0  0  0
  5  8  2  0  0  0
  6 15  1  0  0  0
  7 10  1  0  0  0
  7 11  1  0  0  0
  7 14  2  0  0  0
  8 22  1  0  0  0
  9 19  1  0  0  0
 10 18  2  0  0  0
 10 17  1  0  0  0
 12 23  1  0  0  0
 12 16  1  0  0  0
 15 16  2  0  0  0
 15 25  1  0  0  0
 16 26  1  0  0  0
 17 20  2  0  0  0
 17 27  1  0  0  0
 18 21  1  0  0  0
 18 28  1  0  0  0
 19 20  1  0  0  0
 19 21  2  0  0  0
 20 29  1  0  0  0
 21 30  1  0  0  0
 22 31  1  0  0  0
 22 32  1  0  0  0
 22 33  1  0  0  0
 23 34  1  0  0  0
 23 35  1  0  0  0
 23 36  1  0  0  0
M  CHG  2   7   1  11  -1
M  END
> <s_m_entry_id>
40922

> <s_m_entry_name>
dock_pv.39

> <s_m_Source_Path>
/home/csk/Desktop/cluster/DUD-E-result/tysy

> <s_m_Source_File>
dock_pv.maegz

> <i_m_Source_File_Index>
39

> <chembl_id>
CHEMBL162613

> <chembl_pref_name>
None

> <i_lp_mmshare_version>
53161

> <r_lp_tautomer_probability>
0.883938

> <s_lp_Force_Field>
OPLS_2005

> <r_lp_Energy>
26.61552

> <b_lp_Chiralities_Consistent>
1

> <s_lp_Variant>
CHEMBL1952_lig390-1

> <s_i_glide_gridfile>
glide-grid_1syn

> <i_i_glide_lignum>
772

> <i_i_glide_rotatable_bonds>
3

> <r_i_docking_score>
-8.84762744416389

> <r_i_glide_ligand_efficiency>
-0.384679454094082

> <r_i_glide_ligand_efficiency_sa>
-1.0939771961821

> <r_i_glide_ligand_efficiency_ln>
-2.13943654184897

> <r_i_glide_gscore>
-8.84762744416389

> <r_i_glide_lipo>
-4.10809948907019

> <r_i_glide_hbond>
-0.0799294160022413

> <r_i_glide_metal>
0

> <r_i_glide_rewards>
-1.84590012534968

> <r_i_glide_evdw>
-46.2562370300293

> <r_i_glide_ecoul>
-5.67425155639648

> <r_i_glide_erotb>
0.350251171219162

> <r_i_glide_esite>
0

> <r_i_glide_emodel>
-80.6573141905854

> <r_i_glide_energy>
-51.9304885864258

> <r_i_glide_einternal>
1.71747100353241

> <i_i_glide_confnum>
6

> <i_i_glide_posenum>
280

> <r_i_glide_eff_state_penalty>
0

> <s_user_duplicate_titles>
CHEMBL1952_lig390,CHEMBL1952_lig390,273738

> <i_f3d_flags>
0

> <s_m_subgroup_title>
dock_pv

> <s_m_subgroupid>
dock_pv

> <b_m_subgroup_collapsed>
1

$$$$
CHEMBL1952_lig165
                    3D
 Schrodinger Suite 2021-1.
 33 35  0  0  1  0            999 V2000
   15.6148   12.8147   36.1774 C   0  0  0  0  0  0
   16.8725   12.6921   35.5900 C   0  0  0  0  0  0
   17.3663   13.7209   34.7916 C   0  0  0  0  0  0
   16.5919   14.8617   34.5828 C   0  0  0  0  0  0
   15.3435   14.9966   35.1912 C   0  0  0  0  0  0
   14.8539   13.9670   35.9911 C   0  0  0  0  0  0
   17.2416   16.1641   33.5910 S   0  0  0  0  0  0
   16.0284   16.3018   32.3085 C   0  0  0  0  0  0
   14.8042   15.9758   30.0404 S   0  0  0  0  0  0
   16.1483   15.6070   31.0982 C   0  0  0  0  0  0
   14.1952   17.1628   31.1409 C   0  0  0  0  0  0
   14.9617   17.2253   32.3053 C   0  0  0  0  0  0
   14.5888   18.2278   33.3049 C   0  0  0  0  0  0
   13.5367   18.9834   32.8867 N   0  0  0  0  0  0
   12.8367   18.8834   31.7176 C   0  0  0  0  0  0
   13.1294   17.9729   30.8521 N   0  0  0  0  0  0
   17.2763   14.7027   30.6441 C   0  0  0  0  0  0
   11.7983   19.8061   31.5290 N   0  0  0  0  0  0
   15.0893   18.4646   34.3908 O   0  0  0  0  0  0
   16.9908   13.2194   30.8769 C   0  0  0  0  0  0
   14.9908   11.5252   37.1394 Cl  0  0  0  0  0  0
   17.4630   11.8010   35.7464 H   0  0  0  0  0  0
   18.3394   13.6280   34.3292 H   0  0  0  0  0  0
   14.7576   15.8915   35.0527 H   0  0  0  0  0  0
   13.8862   14.0625   36.4588 H   0  0  0  0  0  0
   13.2796   19.7102   33.5471 H   0  0  0  0  0  0
   17.4962   14.8766   29.5921 H   0  0  0  0  0  0
   18.1986   14.9590   31.1682 H   0  0  0  0  0  0
   11.1185   19.6401   30.7928 H   0  0  0  0  0  0
   11.3906   20.2683   32.3256 H   0  0  0  0  0  0
   17.8991   12.6283   30.7913 H   0  0  0  0  0  0
   16.5930   13.0349   31.8741 H   0  0  0  0  0  0
   16.2643   12.8449   30.1539 H   0  0  0  0  0  0
  1  6  1  0  0  0
  1  2  2  0  0  0
  1 21  1  0  0  0
  2  3  1  0  0  0
  2 22  1  0  0  0
  3  4  2  0  0  0
  3 23  1  0  0  0
  4  7  1  0  0  0
  4  5  1  0  0  0
  5  6  2  0  0  0
  5 24  1  0  0  0
  6 25  1  0  0  0
  7  8  1  0  0  0
  8 10  2  0  0  0
  8 12  1  0  0  0
  9 10  1  0  0  0
  9 11  1  0  0  0
 10 17  1  0  0  0
 11 12  2  0  0  0
 11 16  1  0  0  0
 12 13  1  0  0  0
 13 14  1  0  0  0
 13 19  2  0  0  0
 14 15  1  0  0  0
 14 26  1  0  0  0
 15 16  2  0  0  0
 15 18  1  0  0  0
 17 20  1  0  0  0
 17 27  1  0  0  0
 17 28  1  0  0  0
 18 29  1  0  0  0
 18 30  1  0  0  0
 20 31  1  0  0  0
 20 32  1  0  0  0
 20 33  1  0  0  0
M  END
> <s_m_entry_id>
40923

> <s_m_entry_name>
dock_pv.40

> <s_m_Source_Path>
/home/csk/Desktop/cluster/DUD-E-result/tysy

> <s_m_Source_File>
dock_pv.maegz

> <i_m_Source_File_Index>
40

> <chembl_id>
CHEMBL564277

> <chembl_pref_name>
None

> <i_lp_mmshare_version>
53161

> <r_lp_tautomer_probability>
1

> <s_lp_Force_Field>
OPLS_2005

> <r_lp_Energy>
12.600861

> <b_lp_Chiralities_Consistent>
1

> <s_lp_Variant>
CHEMBL1952_lig165-1

> <s_i_glide_gridfile>
glide-grid_1syn

> <i_i_glide_lignum>
342

> <i_i_glide_rotatable_bonds>
3

> <r_i_docking_score>
-8.84702588780585

> <r_i_glide_ligand_efficiency>
-0.421286947038374

> <r_i_glide_ligand_efficiency_sa>
-1.16229874219841

> <r_i_glide_ligand_efficiency_ln>
-2.18740927366091

> <r_i_glide_gscore>
-8.84702588780585

> <r_i_glide_lipo>
-4.03336794215899

> <r_i_glide_hbond>
-0.439548906721277

> <r_i_glide_metal>
0

> <r_i_glide_rewards>
-1.63084753696866

> <r_i_glide_evdw>
-41.4967002868652

> <r_i_glide_ecoul>
-6.61102294921875

> <r_i_glide_erotb>
0.331244321871711

> <r_i_glide_esite>
-0.00801736710256618

> <r_i_glide_emodel>
-75.7676198373482

> <r_i_glide_energy>
-48.107723236084

> <r_i_glide_einternal>
1.00837528705597

> <i_i_glide_confnum>
8

> <i_i_glide_posenum>
375

> <r_i_glide_eff_state_penalty>
0

> <s_user_duplicate_titles>
CHEMBL1952_lig165,567253

> <i_f3d_flags>
0

> <s_m_subgroup_title>
dock_pv

> <s_m_subgroupid>
dock_pv

> <b_m_subgroup_collapsed>
1

$$$$
CHEMBL1952_lig382
                    3D
 Schrodinger Suite 2021-1.
 42 45  0  0  1  0            999 V2000
   13.8519   16.8127   29.2778 N   0  0  0  0  0  0
   13.2207   17.6846   29.9730 C   0  0  0  0  0  0
   14.7877   16.2459   30.1400 C   0  0  0  0  0  0
   14.6940   16.8056   31.3855 C   0  0  0  0  0  0
   15.4949   16.4741   32.4960 C   0  0  0  0  0  0
   16.4864   15.4382   32.2910 C   0  0  0  0  0  0
   13.7061   17.7652   31.3490 C   0  0  0  0  0  0
   17.3799   14.9706   33.2933 N   0  0  0  0  0  0
   16.5896   14.8840   30.9882 C   0  0  0  0  0  0
   15.7546   15.2682   29.9272 C   0  0  0  0  0  0
   16.9654   14.7595   34.6907 C   0  0  0  0  0  0
   16.9736   10.6099   35.9815 N   0  0  0  0  0  0
   12.1950   18.4834   29.5334 N   0  0  0  0  0  0
   16.9932   13.2976   35.1451 C   0  0  0  0  0  0
   18.1273   11.2103   35.5864 C   0  0  0  0  0  0
   18.1761   12.5496   35.1807 C   0  0  0  0  0  0
   15.2259   17.2595   33.6600 C   0  0  0  0  0  0
   15.8411   11.3552   35.9907 C   0  0  0  0  0  0
   13.4582   18.4980   32.5086 C   0  0  0  0  0  0
   18.7438   14.6181   32.8871 C   0  0  0  0  0  0
   20.5964   11.0309   35.5910 O   0  0  0  0  0  0
   14.2256   18.2451   33.6522 C   0  0  0  0  0  0
   15.8117   12.6915   35.5908 C   0  0  0  0  0  0
   19.3703   10.3331   35.6622 C   0  0  0  0  0  0
   17.3135   14.1074   30.7861 H   0  0  0  0  0  0
   15.8658   14.8013   28.9595 H   0  0  0  0  0  0
   15.9529   15.1133   34.8655 H   0  0  0  0  0  0
   17.6213   15.3465   35.3344 H   0  0  0  0  0  0
   11.8970   18.4333   28.5714 H   0  0  0  0  0  0
   11.6678   19.0717   30.1644 H   0  0  0  0  0  0
   19.1170   12.9939   34.8981 H   0  0  0  0  0  0
   15.7898   17.1256   34.5630 H   0  0  0  0  0  0
   14.9402   10.8589   36.3194 H   0  0  0  0  0  0
   12.7023   19.2698   32.5359 H   0  0  0  0  0  0
   19.0426   15.1212   31.9678 H   0  0  0  0  0  0
   19.4653   14.8904   33.6582 H   0  0  0  0  0  0
   18.8224   13.5466   32.6963 H   0  0  0  0  0  0
   20.7945   11.2553   34.6631 H   0  0  0  0  0  0
   14.0470   18.8270   34.5442 H   0  0  0  0  0  0
   14.8794   13.2374   35.6045 H   0  0  0  0  0  0
   19.3692    9.8244   36.6252 H   0  0  0  0  0  0
   19.3348    9.5615   34.8925 H   0  0  0  0  0  0
  1  2  2  0  0  0
  1  3  1  0  0  0
  2  7  1  0  0  0
  2 13  1  0  0  0
  3  4  1  0  0  0
  3 10  2  0  0  0
  4  5  1  0  0  0
  4  7  2  0  0  0
  5 17  2  0  0  0
  5  6  1  0  0  0
  6  9  2  0  0  0
  6  8  1  0  0  0
  7 19  1  0  0  0
  8 11  1  0  0  0
  8 20  1  0  0  0
  9 10  1  0  0  0
  9 25  1  0  0  0
 10 26  1  0  0  0
 11 14  1  0  0  0
 11 27  1  0  0  0
 11 28  1  0  0  0
 12 18  1  0  0  0
 12 15  2  0  0  0
 13 29  1  0  0  0
 13 30  1  0  0  0
 14 16  2  0  0  0
 14 23  1  0  0  0
 15 16  1  0  0  0
 15 24  1  0  0  0
 16 31  1  0  0  0
 17 22  1  0  0  0
 17 32  1  0  0  0
 18 23  2  0  0  0
 18 33  1  0  0  0
 19 22  2  0  0  0
 19 34  1  0  0  0
 20 35  1  0  0  0
 20 36  1  0  0  0
 20 37  1  0  0  0
 21 24  1  0  0  0
 21 38  1  0  0  0
 22 39  1  0  0  0
 23 40  1  0  0  0
 24 41  1  0  0  0
 24 42  1  0  0  0
M  END
> <s_m_entry_id>
40925

> <s_m_entry_name>
dock_pv.42

> <s_m_Source_Path>
/home/csk/Desktop/cluster/DUD-E-result/tysy

> <s_m_Source_File>
dock_pv.maegz

> <i_m_Source_File_Index>
42

> <chembl_id>
CHEMBL294871

> <chembl_pref_name>
None

> <i_lp_mmshare_version>
53161

> <r_lp_tautomer_probability>
1

> <s_lp_Force_Field>
OPLS_2005

> <r_lp_Energy>
47.61911

> <b_lp_Chiralities_Consistent>
1

> <s_lp_Variant>
CHEMBL1952_lig382-1

> <s_i_glide_gridfile>
glide-grid_1syn

> <i_i_glide_lignum>
759

> <i_i_glide_rotatable_bonds>
5

> <r_i_docking_score>
-8.8254507213375

> <r_i_glide_ligand_efficiency>
-0.367727113389063

> <r_i_glide_ligand_efficiency_sa>
-1.06070854142786

> <r_i_glide_ligand_efficiency_ln>
-2.11233533116124

> <r_i_glide_gscore>
-8.8254507213375

> <r_i_glide_lipo>
-3.94660289391447

> <r_i_glide_hbond>
-0.219705108538947

> <r_i_glide_metal>
0

> <r_i_glide_rewards>
-1.92220870602951

> <r_i_glide_evdw>
-46.1231498718262

> <r_i_glide_ecoul>
-7.56851005554199

> <r_i_glide_erotb>
0.735745458310066

> <r_i_glide_esite>
-0.0312454692420333

> <r_i_glide_emodel>
-82.939134282287

> <r_i_glide_energy>
-53.6916599273682

> <r_i_glide_einternal>
3.47781038284302

> <i_i_glide_confnum>
16

> <i_i_glide_posenum>
390

> <r_i_glide_eff_state_penalty>
0

> <s_user_duplicate_titles>
CHEMBL1952_lig382,87450

> <i_f3d_flags>
0

> <s_m_subgroup_title>
dock_pv

> <s_m_subgroupid>
dock_pv

> <b_m_subgroup_collapsed>
1

$$$$
CHEMBL1952_lig227
                    3D
 Schrodinger Suite 2021-1.
 61 63  0  0  1  0            999 V2000
   13.7001   18.8613   32.7508 N   0  0  0  0  0  0
   13.0454   18.6285   31.5756 C   0  0  0  0  0  0
   13.3780   17.6650   30.7979 N   0  0  0  0  0  0
   14.8067   18.2255   33.1908 C   0  0  0  0  0  0
   15.3916   18.5983   34.1961 O   0  0  0  0  0  0
   15.2214   17.0857   32.2937 C   0  0  0  0  0  0
   14.4727   16.8586   31.1357 C   0  0  0  0  0  0
   14.8332   15.8284   30.2726 C   0  0  0  0  0  0
   15.9356   15.0280   30.5752 C   0  0  0  0  0  0
   16.6809   15.2462   31.7427 C   0  0  0  0  0  0
   16.3413   16.3101   32.5836 C   0  0  0  0  0  0
   17.8838   14.3451   32.0107 C   0  0  0  0  0  0
   18.4626   14.4040   33.3724 N   0  0  0  0  0  0
   17.8158   13.5064   34.2667 C   0  0  0  0  0  0
   18.1943   12.1577   34.3432 C   0  0  0  0  0  0
   17.5396   11.2642   35.1910 C   0  0  0  0  0  0
   16.4734   11.6922   35.9925 C   0  0  0  0  0  0
   16.1395   13.0539   35.9753 C   0  0  0  0  0  0
   16.7992   13.9444   35.1331 C   0  0  0  0  0  0
   15.7225   10.7043   36.8522 C   0  0  0  0  0  0
   16.1920    9.5918   37.0907 O   0  0  0  0  0  0
   14.5372   11.1114   37.3433 N   0  0  0  0  0  0
   13.6526   10.3129   38.2043 C   0  0  1  0  0  0
   12.6312   11.2247   38.9348 C   0  0  0  0  0  0
   12.9593    9.1564   37.4463 C   0  0  0  0  0  0
   12.4616    9.5734   36.2443 O   0  0  0  0  0  0
   12.8710    8.0338   37.8920 O   0  0  0  0  0  0
   13.2673   12.3866   39.7357 C   0  0  0  0  0  0
   12.3270   12.9735   40.7898 C   0  0  0  0  0  0
   11.1577   13.4285   40.2579 O   0  0  0  0  0  0
   12.5922   13.0251   41.9896 O   0  0  0  0  0  0
   11.8894   19.5157   31.2354 C   0  0  0  0  0  0
   16.4188   15.2347   35.1914 F   0  0  0  0  0  0
   19.9272   14.3011   33.2593 C   0  0  0  0  0  0
   20.7581   14.2959   34.5515 C   0  0  0  0  0  0
   22.0803   13.8281   34.3910 O   0  0  0  0  0  0
   13.3923   19.6138   33.3562 H   0  0  0  0  0  0
   14.2638   15.6575   29.3724 H   0  0  0  0  0  0
   16.2072   14.2278   29.9001 H   0  0  0  0  0  0
   16.9596   16.5524   33.4352 H   0  0  0  0  0  0
   18.6298   14.5840   31.2495 H   0  0  0  0  0  0
   17.5795   13.3189   31.7888 H   0  0  0  0  0  0
   18.9909   11.7836   33.7132 H   0  0  0  0  0  0
   17.8529   10.2291   35.1928 H   0  0  0  0  0  0
   15.3639   13.4558   36.6122 H   0  0  0  0  0  0
   14.1728   11.9999   37.0417 H   0  0  0  0  0  0
   14.2876    9.8457   38.9609 H   0  0  0  0  0  0
   12.0232   10.6137   39.6063 H   0  0  0  0  0  0
   11.9408   11.6444   38.2014 H   0  0  0  0  0  0
   12.0406    8.8442   35.7813 H   0  0  0  0  0  0
   13.6100   13.1796   39.0692 H   0  0  0  0  0  0
   14.1536   12.0252   40.2581 H   0  0  0  0  0  0
   11.1164   13.3254   39.3041 H   0  0  0  0  0  0
   11.7932   19.6565   30.1577 H   0  0  0  0  0  0
   10.9914   19.0324   31.5914 H   0  0  0  0  0  0
   11.9700   20.5003   31.6971 H   0  0  0  0  0  0
   20.1924   13.4279   32.6803 H   0  0  0  0  0  0
   20.3415   15.0565   32.5988 H   0  0  0  0  0  0
   20.5917   15.1625   35.1911 H   0  0  0  0  0  0
   20.2683   13.5729   35.1859 H   0  0  0  0  0  0
   22.0214   12.9709   33.9209 H   0  0  0  0  0  0
  1  2  1  0  0  0
  1  4  1  0  0  0
  1 37  1  0  0  0
  2 32  1  0  0  0
  2  3  2  0  0  0
  3  7  1  0  0  0
  4  6  1  0  0  0
  4  5  2  0  0  0
  6 11  1  0  0  0
  6  7  2  0  0  0
  7  8  1  0  0  0
  8  9  2  0  0  0
  8 38  1  0  0  0
  9 10  1  0  0  0
  9 39  1  0  0  0
 10 11  2  0  0  0
 10 12  1  0  0  0
 11 40  1  0  0  0
 12 13  1  0  0  0
 12 41  1  0  0  0
 12 42  1  0  0  0
 13 14  1  0  0  0
 13 34  1  0  0  0
 14 19  1  0  0  0
 14 15  2  0  0  0
 15 16  1  0  0  0
 15 43  1  0  0  0
 16 17  2  0  0  0
 16 44  1  0  0  0
 17 18  1  0  0  0
 17 20  1  0  0  0
 18 19  2  0  0  0
 18 45  1  0  0  0
 19 33  1  0  0  0
 20 21  2  0  0  0
 20 22  1  0  0  0
 22 23  1  0  0  0
 22 46  1  0  0  0
 23 24  1  0  0  0
 23 25  1  0  0  0
 23 47  1  0  0  0
 24 28  1  0  0  0
 24 48  1  0  0  0
 24 49  1  0  0  0
 25 26  1  0  0  0
 25 27  2  0  0  0
 26 50  1  0  0  0
 28 29  1  0  0  0
 28 51  1  0  0  0
 28 52  1  0  0  0
 29 30  1  0  0  0
 29 31  2  0  0  0
 30 53  1  0  0  0
 32 54  1  0  0  0
 32 55  1  0  0  0
 32 56  1  0  0  0
 34 35  1  0  0  0
 34 57  1  0  0  0
 34 58  1  0  0  0
 35 36  1  0  0  0
 35 59  1  0  0  0
 35 60  1  0  0  0
 36 61  1  0  0  0
M  END
> <s_m_entry_id>
40926

> <s_m_entry_name>
dock_pv.43

> <s_m_Source_Path>
/home/csk/Desktop/cluster/DUD-E-result/tysy

> <s_m_Source_File>
dock_pv.maegz

> <i_m_Source_File_Index>
43

> <chembl_id>
CHEMBL104624

> <chembl_pref_name>
None

> <i_lp_mmshare_version>
53161

> <r_lp_tautomer_probability>
0.883938

> <s_lp_Force_Field>
OPLS_2005

> <r_lp_Energy>
28.528093

> <b_lp_Chiralities_Consistent>
1

> <s_lp_Variant>
CHEMBL1952_lig227-1

> <s_i_glide_gridfile>
glide-grid_1syn

> <i_i_glide_lignum>
450

> <i_i_glide_rotatable_bonds>
15

> <r_i_docking_score>
-8.8072624705028

> <r_i_glide_ligand_efficiency>
-0.244646179736189

> <r_i_glide_ligand_efficiency_sa>
-0.807803886243968

> <r_i_glide_ligand_efficiency_ln>
-1.92150672632966

> <r_i_glide_gscore>
-8.8072624705028

> <r_i_glide_lipo>
-3.08770385126223

> <r_i_glide_hbond>
-0.60478358655734

> <r_i_glide_metal>
0

> <r_i_glide_rewards>
-0.913265799674683

> <r_i_glide_evdw>
-50.3231353759766

> <r_i_glide_ecoul>
-17.4692230224609

> <r_i_glide_erotb>
0.978290729900133

> <r_i_glide_esite>
-0.0432597407407061

> <r_i_glide_emodel>
-101.579353117792

> <r_i_glide_energy>
-67.7923583984375

> <r_i_glide_einternal>
11.8633546829224

> <i_i_glide_confnum>
50

> <i_i_glide_posenum>
204

> <r_i_glide_eff_state_penalty>
0

> <s_user_duplicate_titles>
CHEMBL1952_lig227,CHEMBL1952_lig227

> <i_f3d_flags>
0

> <s_m_subgroup_title>
dock_pv

> <s_m_subgroupid>
dock_pv

> <b_m_subgroup_collapsed>
1

$$$$
CHEMBL1952_lig411
                    3D
 Schrodinger Suite 2021-1.
 32 34  0  0  1  0            999 V2000
   16.9760   16.1185   33.5878 S   0  0  0  0  0  0
   14.9921   18.2628   34.3909 O   0  0  0  0  0  0
   12.9890   18.2659   30.8825 N   0  0  0  0  0  0
   13.4738   19.0279   32.9809 N   0  0  0  0  0  0
   11.7924   20.0931   31.6998 N   0  0  0  0  0  0
   15.2625   13.0122   36.4750 N   0  0  0  0  0  0
   14.7927   17.1937   32.1688 C   0  0  0  0  0  0
   15.8171   16.2170   32.2293 C   0  0  0  0  0  0
   14.0001   17.3041   31.0163 C   0  0  0  0  0  0
   14.4742   18.1769   33.2861 C   0  0  0  0  0  0
   16.0025   15.3609   31.1219 C   0  0  0  0  0  0
   14.2002   16.4587   29.9346 C   0  0  0  0  0  0
   12.7668   19.0945   31.8251 C   0  0  0  0  0  0
   15.1902   15.4847   29.9903 C   0  0  0  0  0  0
   16.2876   14.9170   34.6898 C   0  0  0  0  0  0
   17.0785   14.2789   31.1067 C   0  0  0  0  0  0
   17.0756   13.8395   35.1024 C   0  0  0  0  0  0
   14.9883   15.0435   35.1902 C   0  0  0  0  0  0
   16.5251   12.9100   35.9875 C   0  0  0  0  0  0
   14.5173   14.0743   36.0774 C   0  0  0  0  0  0
   13.2674   19.6926   33.7242 H   0  0  0  0  0  0
   11.1018   19.9818   30.9653 H   0  0  0  0  0  0
   11.3916   20.4776   32.5399 H   0  0  0  0  0  0
   13.5909   16.5740   29.0517 H   0  0  0  0  0  0
   15.3335   14.8324   29.1400 H   0  0  0  0  0  0
   18.0732   14.7271   31.1121 H   0  0  0  0  0  0
   16.9984   13.6473   31.9919 H   0  0  0  0  0  0
   16.9963   13.6221   30.2395 H   0  0  0  0  0  0
   18.0876   13.7236   34.7419 H   0  0  0  0  0  0
   14.3543   15.8675   34.9086 H   0  0  0  0  0  0
   17.1057   12.0657   36.3291 H   0  0  0  0  0  0
   13.5188   14.1403   36.4836 H   0  0  0  0  0  0
  1  8  1  0  0  0
  1 15  1  0  0  0
  2 10  2  0  0  0
  3  9  1  0  0  0
  3 13  2  0  0  0
  4 10  1  0  0  0
  4 13  1  0  0  0
  4 21  1  0  0  0
  5 13  1  0  0  0
  5 22  1  0  0  0
  5 23  1  0  0  0
  6 19  2  0  0  0
  6 20  1  0  0  0
  7  8  1  0  0  0
  7  9  2  0  0  0
  7 10  1  0  0  0
  8 11  2  0  0  0
  9 12  1  0  0  0
 11 14  1  0  0  0
 11 16  1  0  0  0
 12 14  2  0  0  0
 12 24  1  0  0  0
 14 25  1  0  0  0
 15 17  2  0  0  0
 15 18  1  0  0  0
 16 26  1  0  0  0
 16 27  1  0  0  0
 16 28  1  0  0  0
 17 19  1  0  0  0
 17 29  1  0  0  0
 18 20  2  0  0  0
 18 30  1  0  0  0
 19 31  1  0  0  0
 20 32  1  0  0  0
M  END
> <s_m_entry_id>
40928

> <s_m_entry_name>
dock_pv.45

> <s_m_Source_Path>
/home/csk/Desktop/cluster/DUD-E-result/tysy

> <s_m_Source_File>
dock_pv.maegz

> <i_m_Source_File_Index>
45

> <chembl_id>
CHEMBL320775

> <chembl_pref_name>
NOLATREXED

> <i_lp_mmshare_version>
53161

> <r_lp_tautomer_probability>
1

> <s_lp_Force_Field>
OPLS_2005

> <r_lp_Energy>
22.96479

> <b_lp_Chiralities_Consistent>
1

> <s_lp_Variant>
CHEMBL1952_lig411-1

> <s_i_glide_gridfile>
glide-grid_1syn

> <i_i_glide_lignum>
804

> <i_i_glide_rotatable_bonds>
2

> <r_i_docking_score>
-8.80120306910031

> <r_i_glide_ligand_efficiency>
-0.440060153455016

> <r_i_glide_ligand_efficiency_sa>
-1.19450703170694

> <r_i_glide_ligand_efficiency_ln>
-2.20265084509081

> <r_i_glide_gscore>
-8.80120306910031

> <r_i_glide_lipo>
-3.82602566016947

> <r_i_glide_hbond>
-0.456

> <r_i_glide_metal>
0

> <r_i_glide_rewards>
-1.9932767494871

> <r_i_glide_evdw>
-41.620059967041

> <r_i_glide_ecoul>
-5.82563638687134

> <r_i_glide_erotb>
0.44838364504977

> <r_i_glide_esite>
-0.0194358481107575

> <r_i_glide_emodel>
-73.1984791906529

> <r_i_glide_energy>
-47.4456963539124

> <r_i_glide_einternal>
0.781505346298218

> <i_i_glide_confnum>
3

> <i_i_glide_posenum>
375

> <r_i_glide_eff_state_penalty>
0

> <s_user_duplicate_titles>
CHEMBL1952_lig411,183333

> <i_f3d_flags>
0

> <s_m_subgroup_title>
dock_pv

> <s_m_subgroupid>
dock_pv

> <b_m_subgroup_collapsed>
1

$$$$
CHEMBL1952_lig375
                    3D
 Schrodinger Suite 2021-1.
 41 44  0  0  1  0            999 V2000
   12.8916   18.6269   31.8288 N   0  0  0  0  0  0
   14.4943   17.0263   31.5967 C   0  0  0  0  0  0
   12.9766   18.3115   30.5930 C   0  0  0  0  0  0
   13.8174   17.8223   32.4846 C   0  0  0  0  0  0
   15.4944   16.0853   31.9229 C   0  0  0  0  0  0
   14.0060   17.2993   30.3387 C   0  0  0  0  0  0
   15.7985   15.9683   33.3354 C   0  0  0  0  0  0
   16.7997   15.0967   33.8335 N   0  0  0  0  0  0
   14.5429   16.5989   29.2639 C   0  0  0  0  0  0
   15.0799   16.7837   34.2472 C   0  0  0  0  0  0
   16.0362   15.3774   30.7887 C   0  0  0  0  0  0
   14.1133   17.7106   33.8367 C   0  0  0  0  0  0
   16.4224   14.3009   35.0164 C   0  0  0  0  0  0
   15.5513   15.6528   29.4929 C   0  0  0  0  0  0
   12.1971   18.8180   29.5862 N   0  0  0  0  0  0
   17.9804   10.2509   35.3738 N   0  0  0  0  0  0
   17.0316   12.8978   35.1272 C   0  0  0  0  0  0
   18.0859   15.7866   33.9358 C   0  0  0  0  0  0
   18.5914   11.1410   34.5560 C   0  0  0  0  0  0
   16.8999   10.6780   36.0680 C   0  0  0  0  0  0
   17.1153   14.3161   30.9461 C   0  0  0  0  0  0
   16.4074   11.9823   35.9860 C   0  0  0  0  0  0
   18.1446   12.4560   34.3917 C   0  0  0  0  0  0
   14.1927   16.7695   28.2561 H   0  0  0  0  0  0
   15.2931   16.7171   35.3039 H   0  0  0  0  0  0
   13.6021   18.3213   34.5669 H   0  0  0  0  0  0
   15.3360   14.1859   35.0295 H   0  0  0  0  0  0
   16.6596   14.8432   35.9343 H   0  0  0  0  0  0
   15.9498   15.1160   28.6470 H   0  0  0  0  0  0
   11.4217   19.4287   29.8139 H   0  0  0  0  0  0
   12.3215   18.5224   28.6309 H   0  0  0  0  0  0
   18.1909   16.5695   33.1911 H   0  0  0  0  0  0
   18.2114   16.2280   34.9154 H   0  0  0  0  0  0
   18.9272   15.1195   33.7712 H   0  0  0  0  0  0
   19.4349   10.7766   33.9909 H   0  0  0  0  0  0
   16.4258    9.9530   36.7099 H   0  0  0  0  0  0
   17.3386   13.8320   29.9948 H   0  0  0  0  0  0
   18.0394   14.7558   31.3189 H   0  0  0  0  0  0
   16.7990   13.5325   31.6351 H   0  0  0  0  0  0
   15.5488   12.2721   36.5710 H   0  0  0  0  0  0
   18.6565   13.0776   33.6760 H   0  0  0  0  0  0
  1  3  2  0  0  0
  1  4  1  0  0  0
  2  4  1  0  0  0
  2  5  1  0  0  0
  2  6  2  0  0  0
  3  6  1  0  0  0
  3 15  1  0  0  0
  4 12  2  0  0  0
  5 11  2  0  0  0
  5  7  1  0  0  0
  6  9  1  0  0  0
  7 10  2  0  0  0
  7  8  1  0  0  0
  8 13  1  0  0  0
  8 18  1  0  0  0
  9 14  2  0  0  0
  9 24  1  0  0  0
 10 12  1  0  0  0
 10 25  1  0  0  0
 11 21  1  0  0  0
 11 14  1  0  0  0
 12 26  1  0  0  0
 13 17  1  0  0  0
 13 27  1  0  0  0
 13 28  1  0  0  0
 14 29  1  0  0  0
 15 30  1  0  0  0
 15 31  1  0  0  0
 16 19  1  0  0  0
 16 20  2  0  0  0
 17 22  2  0  0  0
 17 23  1  0  0  0
 18 32  1  0  0  0
 18 33  1  0  0  0
 18 34  1  0  0  0
 19 23  2  0  0  0
 19 35  1  0  0  0
 20 22  1  0  0  0
 20 36  1  0  0  0
 21 37  1  0  0  0
 21 38  1  0  0  0
 21 39  1  0  0  0
 22 40  1  0  0  0
 23 41  1  0  0  0
M  END
> <s_m_entry_id>
40929

> <s_m_entry_name>
dock_pv.46

> <s_m_Source_Path>
/home/csk/Desktop/cluster/DUD-E-result/tysy

> <s_m_Source_File>
dock_pv.maegz

> <i_m_Source_File_Index>
46

> <chembl_id>
CHEMBL56523

> <chembl_pref_name>
None

> <i_lp_mmshare_version>
53161

> <r_lp_tautomer_probability>
1

> <s_lp_Force_Field>
OPLS_2005

> <r_lp_Energy>
50.415269

> <b_lp_Chiralities_Consistent>
1

> <s_lp_Variant>
CHEMBL1952_lig375-1

> <s_i_glide_gridfile>
glide-grid_1syn

> <i_i_glide_lignum>
749

> <i_i_glide_rotatable_bonds>
3

> <r_i_docking_score>
-8.79131922632423

> <r_i_glide_ligand_efficiency>
-0.382231270709749

> <r_i_glide_ligand_efficiency_sa>
-1.08701488830205

> <r_i_glide_ligand_efficiency_ln>
-2.12582070420065

> <r_i_glide_gscore>
-8.79131922632423

> <r_i_glide_lipo>
-4.19326621972243

> <r_i_glide_hbond>
-0.30808144844498

> <r_i_glide_metal>
0

> <r_i_glide_rewards>
-2.20282307236666

> <r_i_glide_evdw>
-44.7818984985352

> <r_i_glide_ecoul>
-2.73305988311768

> <r_i_glide_erotb>
0.604109198982249

> <r_i_glide_esite>
-0.0422037773779991

> <r_i_glide_emodel>
-67.7841921069268

> <r_i_glide_energy>
-47.5149583816528

> <r_i_glide_einternal>
8.715989112854

> <i_i_glide_confnum>
14

> <i_i_glide_posenum>
152

> <r_i_glide_eff_state_penalty>
0

> <s_user_duplicate_titles>
CHEMBL1952_lig375,87726

> <i_f3d_flags>
0

> <s_m_subgroup_title>
dock_pv

> <s_m_subgroupid>
dock_pv

> <b_m_subgroup_collapsed>
1

$$$$
CHEMBL1952_lig246
                    3D
 Schrodinger Suite 2021-1.
 58 60  0  0  1  0            999 V2000
   15.8434   11.5078   36.2527 C   0  0  0  0  0  0
   15.2300   10.4100   36.9519 C   0  0  0  0  0  0
   15.9038    9.5460   37.5138 O   0  0  0  0  0  0
   13.8871   10.4207   36.9517 N   0  0  0  0  0  0
   13.0384    9.4244   37.6145 C   0  0  1  0  0  0
   12.4432   10.0358   38.9160 C   0  0  0  0  0  0
   11.9836    8.8921   36.6198 C   0  0  0  0  0  0
   12.5921    8.2284   35.5909 O   0  0  0  0  0  0
   10.7866    9.0265   36.7600 O   0  0  0  0  0  0
   13.5114   10.5185   39.9301 C   0  0  0  0  0  0
   12.9094   11.1326   41.1904 C   0  0  0  0  0  0
   12.2750   12.3138   40.9428 O   0  0  0  0  0  0
   12.9920   10.6283   42.3070 O   0  0  0  0  0  0
   14.0496   17.3035   28.8134 N   0  0  0  0  0  0
   13.3312   18.3207   29.0979 C   0  0  0  0  0  0
   13.0007   18.7227   30.3759 N   0  0  0  0  0  0
   14.5865   16.4725   29.8025 C   0  0  0  0  0  0
   15.2396   15.4535   29.5883 O   0  0  0  0  0  0
   14.3255   16.9164   31.2350 C   0  0  0  0  0  0
   13.5477   18.0565   31.4739 C   0  0  0  0  0  0
   13.3493   18.5160   32.7694 C   0  0  0  0  0  0
   13.9225   17.8277   33.8365 C   0  0  0  0  0  0
   14.6779   16.6665   33.6231 C   0  0  0  0  0  0
   14.8643   16.2077   32.3123 C   0  0  0  0  0  0
   15.2046   15.9127   34.8492 C   0  0  0  0  0  0
   16.3839   15.0272   34.6840 N   0  0  0  0  0  0
   12.8448   19.1912   27.9709 C   0  0  0  0  0  0
   16.4164   13.7256   35.1922 C   0  0  0  0  0  0
   15.1684   13.1172   36.2633 S   0  0  0  0  0  0
   17.0610   11.4960   35.5911 C   0  0  0  0  0  0
   17.3519   12.7099   34.9576 C   0  0  0  0  0  0
   17.4783   15.6084   33.8812 C   0  0  0  0  0  0
   18.9179   15.3685   34.2906 C   0  0  0  0  0  0
   19.7922   14.6279   33.5910 C   0  0  0  0  0  0
   13.4088   11.1271   36.4136 H   0  0  0  0  0  0
   13.6338    8.5546   37.8978 H   0  0  0  0  0  0
   11.7864   10.8666   38.6539 H   0  0  0  0  0  0
   11.8104    9.2929   39.4060 H   0  0  0  0  0  0
   11.9405    7.8638   34.9742 H   0  0  0  0  0  0
   14.1443    9.6785   40.2219 H   0  0  0  0  0  0
   14.1755   11.2587   39.4834 H   0  0  0  0  0  0
   12.3240   12.5640   40.0166 H   0  0  0  0  0  0
   12.4266   19.5377   30.5212 H   0  0  0  0  0  0
   12.7690   19.4069   32.9599 H   0  0  0  0  0  0
   13.7587   18.1993   34.8367 H   0  0  0  0  0  0
   15.4058   15.2900   32.1295 H   0  0  0  0  0  0
   15.3923   16.6170   35.6583 H   0  0  0  0  0  0
   14.3417   15.3455   35.1921 H   0  0  0  0  0  0
   12.9918   18.7167   27.0023 H   0  0  0  0  0  0
   11.7918   19.4270   28.0780 H   0  0  0  0  0  0
   13.3848   20.1320   27.9578 H   0  0  0  0  0  0
   17.6904   10.6201   35.5062 H   0  0  0  0  0  0
   18.2192   12.8081   34.3289 H   0  0  0  0  0  0
   17.3742   15.2495   32.8584 H   0  0  0  0  0  0
   17.3566   16.6914   33.8212 H   0  0  0  0  0  0
   19.2420   15.8449   35.1978 H   0  0  0  0  0  0
   20.8078   14.4864   33.9296 H   0  0  0  0  0  0
   19.5117   14.1427   32.6653 H   0  0  0  0  0  0
  1  2  1  0  0  0
  1 29  1  0  0  0
  1 30  2  0  0  0
  2  3  2  0  0  0
  2  4  1  0  0  0
  4  5  1  0  0  0
  4 35  1  0  0  0
  5  6  1  0  0  0
  5  7  1  0  0  0
  5 36  1  0  0  0
  6 10  1  0  0  0
  6 37  1  0  0  0
  6 38  1  0  0  0
  7  9  2  0  0  0
  7  8  1  0  0  0
  8 39  1  0  0  0
 10 11  1  0  0  0
 10 40  1  0  0  0
 10 41  1  0  0  0
 11 12  1  0  0  0
 11 13  2  0  0  0
 12 42  1  0  0  0
 14 15  2  0  0  0
 14 17  1  0  0  0
 15 16  1  0  0  0
 15 27  1  0  0  0
 16 20  1  0  0  0
 16 43  1  0  0  0
 17 18  2  0  0  0
 17 19  1  0  0  0
 19 24  1  0  0  0
 19 20  2  0  0  0
 20 21  1  0  0  0
 21 22  2  0  0  0
 21 44  1  0  0  0
 22 23  1  0  0  0
 22 45  1  0  0  0
 23 24  2  0  0  0
 23 25  1  0  0  0
 24 46  1  0  0  0
 25 26  1  0  0  0
 25 47  1  0  0  0
 25 48  1  0  0  0
 26 28  1  0  0  0
 26 32  1  0  0  0
 27 49  1  0  0  0
 27 50  1  0  0  0
 27 51  1  0  0  0
 28 29  1  0  0  0
 28 31  2  0  0  0
 30 31  1  0  0  0
 30 52  1  0  0  0
 31 53  1  0  0  0
 32 33  1  0  0  0
 32 54  1  0  0  0
 32 55  1  0  0  0
 33 34  2  0  0  0
 33 56  1  0  0  0
 34 57  1  0  0  0
 34 58  1  0  0  0
M  END
> <s_m_entry_id>
40930

> <s_m_entry_name>
dock_pv.47

> <s_m_Source_Path>
/home/csk/Desktop/cluster/DUD-E-result/tysy

> <s_m_Source_File>
dock_pv.maegz

> <i_m_Source_File_Index>
47

> <chembl_id>
CHEMBL1099239

> <chembl_pref_name>
None

> <i_lp_mmshare_version>
53161

> <r_lp_tautomer_probability>
0.116051

> <s_lp_Force_Field>
OPLS_2005

> <r_lp_Energy>
7.746324

> <b_lp_Chiralities_Consistent>
1

> <s_lp_Variant>
CHEMBL1952_lig246-2

> <s_i_glide_gridfile>
glide-grid_1syn

> <i_i_glide_lignum>
489

> <i_i_glide_rotatable_bonds>
14

> <r_i_docking_score>
-8.78892110720426

> <r_i_glide_ligand_efficiency>
-0.258497679623655

> <r_i_glide_ligand_efficiency_sa>
-0.837432132527275

> <r_i_glide_ligand_efficiency_ln>
-1.94171919346826

> <r_i_glide_gscore>
-8.78892110720426

> <r_i_glide_lipo>
-3.84793860525372

> <r_i_glide_hbond>
-0.304

> <r_i_glide_metal>
0

> <r_i_glide_rewards>
-1.00595985092891

> <r_i_glide_evdw>
-55.2598762512207

> <r_i_glide_ecoul>
-12.5066213607788

> <r_i_glide_erotb>
1.03806999904059

> <r_i_glide_esite>
-0.0301056333843673

> <r_i_glide_emodel>
-96.7172167856088

> <r_i_glide_energy>
-67.7664976119995

> <r_i_glide_einternal>
15.023736000061

> <i_i_glide_confnum>
28

> <i_i_glide_posenum>
216

> <r_i_glide_eff_state_penalty>
0

> <s_user_duplicate_titles>
CHEMBL1952_lig246,CHEMBL1952_lig246

> <i_f3d_flags>
0

> <s_m_subgroup_title>
dock_pv

> <s_m_subgroupid>
dock_pv

> <b_m_subgroup_collapsed>
1

$$$$
CHEMBL1952_lig294
                    3D
 Schrodinger Suite 2021-1.
 41 45  0  0  1  0            999 V2000
   14.1548   16.6120   29.7151 N   0  0  0  0  0  0
   13.7966   17.5244   30.6712 C   0  0  0  0  0  0
   14.5825   17.2851   31.8317 C   0  0  0  0  0  0
   15.4237   16.1641   31.5646 C   0  0  0  0  0  0
   16.4214   15.4273   32.2667 C   0  0  0  0  0  0
   16.9922   14.3209   31.6460 C   0  0  0  0  0  0
   16.5925   13.9142   30.3888 C   0  0  0  0  0  0
   15.6733   14.6280   29.6303 C   0  0  0  0  0  0
   15.0945   15.7459   30.2314 C   0  0  0  0  0  0
   12.7211   19.2480   31.6300 C   0  0  0  0  0  0
   12.8682   18.4779   30.5253 N   0  0  0  0  0  0
   14.3239   18.1772   32.8902 C   0  0  0  0  0  0
   13.3889   19.1397   32.7909 N   0  0  0  0  0  0
   11.7920   20.2706   31.5909 N   0  0  0  0  0  0
   14.9922   18.1572   34.0968 N   0  0  0  0  0  0
   17.0330   15.8274   33.8768 S   0  0  0  0  0  0
   16.2266   14.6390   34.9327 C   0  0  0  0  0  0
   14.9822   14.9180   35.4908 C   0  0  0  0  0  0
   14.3300   13.9660   36.2623 C   0  0  0  0  0  0
   14.8984   12.7132   36.4676 C   0  0  0  0  0  0
   16.8835   13.3835   35.1673 C   0  0  0  0  0  0
   16.1681   12.3960   35.9225 C   0  0  0  0  0  0
   16.7328   11.1088   36.1054 C   0  0  0  0  0  0
   17.9889   10.8077   35.5903 C   0  0  0  0  0  0
   18.7067   11.7680   34.8912 C   0  0  0  0  0  0
   18.1802   13.0390   34.6831 C   0  0  0  0  0  0
   13.7767   16.5823   28.7809 H   0  0  0  0  0  0
   17.7467   13.7355   32.1463 H   0  0  0  0  0  0
   17.0188   13.0113   29.9910 H   0  0  0  0  0  0
   15.4015   14.3013   28.6368 H   0  0  0  0  0  0
   11.0742   20.2206   30.8734 H   0  0  0  0  0  0
   11.6444   20.7583   32.4614 H   0  0  0  0  0  0
   15.7224   17.4741   34.2450 H   0  0  0  0  0  0
   14.7246   18.8435   34.7874 H   0  0  0  0  0  0
   14.5036   15.8686   35.3159 H   0  0  0  0  0  0
   13.3619   14.1945   36.6833 H   0  0  0  0  0  0
   14.3677   11.9712   37.0461 H   0  0  0  0  0  0
   16.1841   10.3619   36.6602 H   0  0  0  0  0  0
   18.4194    9.8282   35.7397 H   0  0  0  0  0  0
   19.6858   11.5264   34.5020 H   0  0  0  0  0  0
   18.7718   13.7582   34.1369 H   0  0  0  0  0  0
  1  2  1  0  0  0
  1  9  1  0  0  0
  1 27  1  0  0  0
  2  3  1  0  0  0
  2 11  2  0  0  0
  3  4  1  0  0  0
  3 12  2  0  0  0
  4  5  1  0  0  0
  4  9  2  0  0  0
  5  6  2  0  0  0
  5 16  1  0  0  0
  6  7  1  0  0  0
  6 28  1  0  0  0
  7  8  2  0  0  0
  7 29  1  0  0  0
  8  9  1  0  0  0
  8 30  1  0  0  0
 10 11  1  0  0  0
 10 13  2  0  0  0
 10 14  1  0  0  0
 12 13  1  0  0  0
 12 15  1  0  0  0
 14 31  1  0  0  0
 14 32  1  0  0  0
 15 33  1  0  0  0
 15 34  1  0  0  0
 16 17  1  0  0  0
 17 21  1  0  0  0
 17 18  2  0  0  0
 18 19  1  0  0  0
 18 35  1  0  0  0
 19 20  2  0  0  0
 19 36  1  0  0  0
 20 22  1  0  0  0
 20 37  1  0  0  0
 21 22  1  0  0  0
 21 26  2  0  0  0
 22 23  2  0  0  0
 23 24  1  0  0  0
 23 38  1  0  0  0
 24 25  2  0  0  0
 24 39  1  0  0  0
 25 26  1  0  0  0
 25 40  1  0  0  0
 26 41  1  0  0  0
M  END
> <s_m_entry_id>
40931

> <s_m_entry_name>
dock_pv.48

> <s_m_Source_Path>
/home/csk/Desktop/cluster/DUD-E-result/tysy

> <s_m_Source_File>
dock_pv.maegz

> <i_m_Source_File_Index>
48

> <chembl_id>
CHEMBL4088617

> <chembl_pref_name>
None

> <i_lp_mmshare_version>
53161

> <r_lp_tautomer_probability>
1

> <s_lp_Force_Field>
OPLS_2005

> <r_lp_Energy>
16.304051

> <b_lp_Chiralities_Consistent>
1

> <s_lp_Variant>
CHEMBL1952_lig294-1

> <s_i_glide_gridfile>
glide-grid_1syn

> <i_i_glide_lignum>
564

> <i_i_glide_rotatable_bonds>
2

> <r_i_docking_score>
-8.78445437923443

> <r_i_glide_ligand_efficiency>
-0.337863629970555

> <r_i_glide_ligand_efficiency_sa>
-1.00091967435858

> <r_i_glide_ligand_efficiency_ln>
-2.06300028681739

> <r_i_glide_gscore>
-8.78445437923443

> <r_i_glide_lipo>
-4.30223294627381

> <r_i_glide_hbond>
-0.32

> <r_i_glide_metal>
0

> <r_i_glide_rewards>
-1.70261321494535

> <r_i_glide_evdw>
-48.4110679626465

> <r_i_glide_ecoul>
-2.25831055641174

> <r_i_glide_erotb>
0.299691763578814

> <r_i_glide_esite>
0

> <r_i_glide_emodel>
-76.7351734597996

> <r_i_glide_energy>
-50.6693785190582

> <r_i_glide_einternal>
0.800681710243225

> <i_i_glide_confnum>
2

> <i_i_glide_posenum>
210

> <r_i_glide_eff_state_penalty>
0

> <s_user_duplicate_titles>
CHEMBL1952_lig294

> <i_f3d_flags>
0

> <s_m_subgroup_title>
dock_pv

> <s_m_subgroupid>
dock_pv

> <b_m_subgroup_collapsed>
1

$$$$
CHEMBL1952_lig370
                    3D
 Schrodinger Suite 2021-1.
 40 43  0  0  1  0            999 V2000
   12.8766   18.6292   31.7254 N   0  0  0  0  0  0
   14.4827   17.0281   31.5566 C   0  0  0  0  0  0
   12.9725   18.2793   30.5007 C   0  0  0  0  0  0
   13.8034   17.8567   32.4126 C   0  0  0  0  0  0
   15.4874   16.1059   31.9238 C   0  0  0  0  0  0
   13.9967   17.2513   30.2869 C   0  0  0  0  0  0
   15.8107   16.0674   33.3364 C   0  0  0  0  0  0
   16.8457   15.2589   33.8670 N   0  0  0  0  0  0
   14.5401   16.5089   29.2412 C   0  0  0  0  0  0
   15.0846   16.9130   34.2116 C   0  0  0  0  0  0
   16.0117   15.3331   30.8229 C   0  0  0  0  0  0
   14.1017   17.8049   33.7665 C   0  0  0  0  0  0
   16.5565   14.5236   35.1086 C   0  0  0  0  0  0
   16.8819   10.8643   36.0878 N   0  0  0  0  0  0
   17.9433   10.4417   35.3809 N   0  0  0  0  0  0
   15.5337   15.5597   29.5160 C   0  0  0  0  0  0
   12.2116   18.7726   29.4711 N   0  0  0  0  0  0
   17.0938   13.0879   35.1505 C   0  0  0  0  0  0
   16.4725   12.1577   35.9899 C   0  0  0  0  0  0
   18.1430   15.9322   33.8120 C   0  0  0  0  0  0
   18.5910   11.3043   34.5566 C   0  0  0  0  0  0
   17.0468   14.2364   31.0345 C   0  0  0  0  0  0
   18.1885   12.6309   34.4012 C   0  0  0  0  0  0
   14.1925   16.6414   28.2265 H   0  0  0  0  0  0
   15.3049   16.9033   35.2678 H   0  0  0  0  0  0
   13.5859   18.4458   34.4678 H   0  0  0  0  0  0
   15.4800   14.4920   35.2888 H   0  0  0  0  0  0
   16.9847   15.0559   35.9592 H   0  0  0  0  0  0
   15.9277   14.9761   28.6961 H   0  0  0  0  0  0
   11.4585   19.4205   29.6732 H   0  0  0  0  0  0
   12.3426   18.4577   28.5234 H   0  0  0  0  0  0
   15.6263   12.4363   36.5997 H   0  0  0  0  0  0
   18.3595   16.2255   32.7914 H   0  0  0  0  0  0
   18.1592   16.8528   34.3895 H   0  0  0  0  0  0
   18.9592   15.3078   34.1727 H   0  0  0  0  0  0
   19.4178   10.9046   33.9912 H   0  0  0  0  0  0
   17.1333   13.5972   30.1575 H   0  0  0  0  0  0
   18.0311   14.6563   31.2358 H   0  0  0  0  0  0
   16.7674   13.5820   31.8582 H   0  0  0  0  0  0
   18.7219   13.2607   33.7065 H   0  0  0  0  0  0
  1  3  2  0  0  0
  1  4  1  0  0  0
  2  4  1  0  0  0
  2  5  1  0  0  0
  2  6  2  0  0  0
  3  6  1  0  0  0
  3 17  1  0  0  0
  4 12  2  0  0  0
  5 11  2  0  0  0
  5  7  1  0  0  0
  6  9  1  0  0  0
  7 10  2  0  0  0
  7  8  1  0  0  0
  8 13  1  0  0  0
  8 20  1  0  0  0
  9 16  2  0  0  0
  9 24  1  0  0  0
 10 12  1  0  0  0
 10 25  1  0  0  0
 11 22  1  0  0  0
 11 16  1  0  0  0
 12 26  1  0  0  0
 13 18  1  0  0  0
 13 27  1  0  0  0
 13 28  1  0  0  0
 14 19  2  0  0  0
 14 15  1  0  0  0
 15 21  2  0  0  0
 16 29  1  0  0  0
 17 30  1  0  0  0
 17 31  1  0  0  0
 18 19  1  0  0  0
 18 23  2  0  0  0
 19 32  1  0  0  0
 20 33  1  0  0  0
 20 34  1  0  0  0
 20 35  1  0  0  0
 21 23  1  0  0  0
 21 36  1  0  0  0
 22 37  1  0  0  0
 22 38  1  0  0  0
 22 39  1  0  0  0
 23 40  1  0  0  0
M  END
> <s_m_entry_id>
40932

> <s_m_entry_name>
dock_pv.49

> <s_m_Source_Path>
/home/csk/Desktop/cluster/DUD-E-result/tysy

> <s_m_Source_File>
dock_pv.maegz

> <i_m_Source_File_Index>
49

> <chembl_id>
CHEMBL57420

> <chembl_pref_name>
None

> <i_lp_mmshare_version>
53161

> <r_lp_tautomer_probability>
1

> <s_lp_Force_Field>
OPLS_2005

> <r_lp_Energy>
57.244772

> <b_lp_Chiralities_Consistent>
1

> <s_lp_Variant>
CHEMBL1952_lig370-1

> <s_i_glide_gridfile>
glide-grid_1syn

> <i_i_glide_lignum>
740

> <i_i_glide_rotatable_bonds>
3

> <r_i_docking_score>
-8.77603151414553

> <r_i_glide_ligand_efficiency>
-0.381566587571545

> <r_i_glide_ligand_efficiency_sa>
-1.08512461787522

> <r_i_glide_ligand_efficiency_ln>
-2.12212399677453

> <r_i_glide_gscore>
-8.77603151414553

> <r_i_glide_lipo>
-4.02192887541024

> <r_i_glide_hbond>
-0.247728682165575

> <r_i_glide_metal>
0

> <r_i_glide_rewards>
-2.22132511994693

> <r_i_glide_evdw>
-45.733283996582

> <r_i_glide_ecoul>
-3.75004386901855

> <r_i_glide_erotb>
0.600666603326994

> <r_i_glide_esite>
-0.0365446597678951

> <r_i_glide_emodel>
-71.0727604548311

> <r_i_glide_energy>
-49.4833278656006

> <r_i_glide_einternal>
8.79102420806885

> <i_i_glide_confnum>
3

> <i_i_glide_posenum>
17

> <r_i_glide_eff_state_penalty>
0

> <s_user_duplicate_titles>
CHEMBL1952_lig370,87506

> <i_f3d_flags>
0

> <s_m_subgroup_title>
dock_pv

> <s_m_subgroupid>
dock_pv

> <b_m_subgroup_collapsed>
1

$$$$
CHEMBL1952_lig412
                    3D
 Schrodinger Suite 2021-1.
 53 55  0  0  1  0            999 V2000
   15.5156   16.4402   32.1799 C   0  0  0  0  0  0
   14.9967   17.4623   33.1869 C   0  0  0  0  0  0
   13.9776   18.2153   32.7152 N   0  0  0  0  0  0
   16.6127   15.5705   32.4147 C   0  0  0  0  0  0
   13.7713   17.2522   30.6392 N   0  0  0  0  0  0
   14.8347   16.3897   30.9506 C   0  0  0  0  0  0
   13.3861   18.1239   31.4921 C   0  0  0  0  0  0
   15.4471   10.6235   36.5960 C   0  0  0  0  0  0
   14.1259   10.4132   36.4319 N   0  0  0  0  0  0
   17.5792   15.6196   33.9238 S   0  0  0  0  0  0
   13.7222    7.9482   36.0635 C   0  0  0  0  0  0
   13.3619    9.2278   36.8684 C   0  0  1  0  0  0
   16.9938   14.6704   31.3940 C   0  0  0  0  0  0
   15.9935   11.8967   36.0031 C   0  0  0  0  0  0
   15.3805   17.6514   34.3325 O   0  0  0  0  0  0
   12.9913   10.0896   40.7289 C   0  0  0  0  0  0
   15.2153   15.4866   29.9655 C   0  0  0  0  0  0
   16.1918    9.8281   37.1725 O   0  0  0  0  0  0
   14.4098    7.9305   35.0592 O   0  0  0  0  0  0
   13.6561   10.7908   41.4855 O   0  0  0  0  0  0
   16.2868   14.6291   30.1890 C   0  0  0  0  0  0
   13.4230    9.0523   38.4201 C   0  0  0  0  0  0
   16.9944   14.2005   34.7906 C   0  0  0  0  0  0
   17.2752   11.8967   35.4330 C   0  0  0  0  0  0
   15.2428   13.0831   36.0102 C   0  0  0  0  0  0
   12.9362   10.2869   39.2134 C   0  0  0  0  0  0
   13.1026    6.8524   36.5976 O   0  0  0  0  0  0
   12.1898    9.0716   41.1509 O   0  0  0  0  0  0
   15.7482   14.2369   35.4136 C   0  0  0  0  0  0
   17.7734   13.0451   34.8215 C   0  0  0  0  0  0
   12.2639   19.0804   31.1632 C   0  0  0  0  0  0
   18.1910   13.7375   31.5347 C   0  0  0  0  0  0
   13.6092   11.0870   35.8892 H   0  0  0  0  0  0
   12.3243    9.4327   36.6009 H   0  0  0  0  0  0
   13.6441   18.9044   33.3708 H   0  0  0  0  0  0
   14.6858   15.4619   29.0259 H   0  0  0  0  0  0
   16.5791   13.9392   29.4107 H   0  0  0  0  0  0
   14.4416    8.8098   38.7324 H   0  0  0  0  0  0
   12.8188    8.1929   38.7092 H   0  0  0  0  0  0
   17.8833   11.0015   35.4318 H   0  0  0  0  0  0
   14.2664   13.1260   36.4720 H   0  0  0  0  0  0
   11.9172   10.5445   38.9287 H   0  0  0  0  0  0
   13.5505   11.1549   38.9727 H   0  0  0  0  0  0
   13.2819    6.0663   36.0758 H   0  0  0  0  0  0
   11.7490    8.6223   40.4289 H   0  0  0  0  0  0
   15.1592   15.1444   35.4055 H   0  0  0  0  0  0
   18.7489   13.0285   34.3530 H   0  0  0  0  0  0
   12.5834   19.8050   30.4149 H   0  0  0  0  0  0
   11.3978   18.5515   30.7644 H   0  0  0  0  0  0
   11.9297   19.6367   32.0377 H   0  0  0  0  0  0
   18.5890   13.4346   30.5698 H   0  0  0  0  0  0
   19.0250   14.2184   32.0427 H   0  0  0  0  0  0
   17.9152   12.8385   32.0838 H   0  0  0  0  0  0
  1  2  1  0  0  0
  1  4  1  0  0  0
  1  6  2  0  0  0
  2 15  2  0  0  0
  2  3  1  0  0  0
  3  7  1  0  0  0
  3 35  1  0  0  0
  4 10  1  0  0  0
  4 13  2  0  0  0
  5  6  1  0  0  0
  5  7  2  0  0  0
  6 17  1  0  0  0
  7 31  1  0  0  0
  8 14  1  0  0  0
  8  9  1  0  0  0
  8 18  2  0  0  0
  9 12  1  0  0  0
  9 33  1  0  0  0
 10 23  1  0  0  0
 11 12  1  0  0  0
 11 19  2  0  0  0
 11 27  1  0  0  0
 12 22  1  0  0  0
 12 34  1  0  0  0
 13 32  1  0  0  0
 13 21  1  0  0  0
 14 24  1  0  0  0
 14 25  2  0  0  0
 16 26  1  0  0  0
 16 20  2  0  0  0
 16 28  1  0  0  0
 17 21  2  0  0  0
 17 36  1  0  0  0
 21 37  1  0  0  0
 22 26  1  0  0  0
 22 38  1  0  0  0
 22 39  1  0  0  0
 23 29  2  0  0  0
 23 30  1  0  0  0
 24 30  2  0  0  0
 24 40  1  0  0  0
 25 29  1  0  0  0
 25 41  1  0  0  0
 26 42  1  0  0  0
 26 43  1  0  0  0
 27 44  1  0  0  0
 28 45  1  0  0  0
 29 46  1  0  0  0
 30 47  1  0  0  0
 31 48  1  0  0  0
 31 49  1  0  0  0
 31 50  1  0  0  0
 32 51  1  0  0  0
 32 52  1  0  0  0
 32 53  1  0  0  0
M  END
> <s_m_entry_id>
40933

> <s_m_entry_name>
dock_pv.50

> <s_m_Source_Path>
/home/csk/Desktop/cluster/DUD-E-result/tysy

> <s_m_Source_File>
dock_pv.maegz

> <i_m_Source_File_Index>
50

> <chembl_id>
CHEMBL166369

> <chembl_pref_name>
None

> <i_lp_mmshare_version>
53161

> <r_lp_tautomer_probability>
0.883938

> <s_lp_Force_Field>
OPLS_2005

> <r_lp_Energy>
26.794058

> <b_lp_Chiralities_Consistent>
1

> <s_lp_Variant>
CHEMBL1952_lig412-1

> <s_i_glide_gridfile>
glide-grid_1syn

> <i_i_glide_lignum>
805

> <i_i_glide_rotatable_bonds>
11

> <r_i_docking_score>
-8.77425522784805

> <r_i_glide_ligand_efficiency>
-0.274195475870252

> <r_i_glide_ligand_efficiency_sa>
-0.870516372677057

> <r_i_glide_ligand_efficiency_ln>
-1.96479492267941

> <r_i_glide_gscore>
-8.77425522784805

> <r_i_glide_lipo>
-3.7708840493376

> <r_i_glide_hbond>
-0.515285611391108

> <r_i_glide_metal>
0

> <r_i_glide_rewards>
-0.962466640118124

> <r_i_glide_evdw>
-55.2405090332031

> <r_i_glide_ecoul>
-10.8401765823364

> <r_i_glide_erotb>
0.871490792662336

> <r_i_glide_esite>
-0.00905778065293689

> <r_i_glide_emodel>
-100.22817662086

> <r_i_glide_energy>
-66.0806856155396

> <r_i_glide_einternal>
4.28079795837402

> <i_i_glide_confnum>
21

> <i_i_glide_posenum>
64

> <r_i_glide_eff_state_penalty>
0

> <s_user_duplicate_titles>
CHEMBL1952_lig412,CHEMBL1952_lig412,272863

> <i_f3d_flags>
0

> <s_m_subgroup_title>
dock_pv

> <s_m_subgroupid>
dock_pv

> <b_m_subgroup_collapsed>
1

$$$$
CHEMBL1952_lig330 
                    3D
 Schrodinger Suite 2021-1.
 51 54  0  0  1  0            999 V2000
   13.5036   19.0279   32.8278 N   0  0  0  0  0  0
   12.8459   18.9740   31.6220 C   0  0  0  0  0  0
   13.1317   18.0578   30.7531 N   0  0  0  0  0  0
   14.5141   18.2281   33.2804 C   0  0  0  0  0  0
   14.8819   17.2361   32.2765 C   0  0  0  0  0  0
   14.1493   17.2103   31.0906 C   0  0  0  0  0  0
   14.6555   16.2137   30.3065 N   0  0  0  0  0  0
   15.6979   15.6222   30.9813 C   0  0  0  0  0  0
   15.8807   16.2397   32.2223 C   0  0  0  0  0  0
   14.9929   18.4029   34.3911 O   0  0  0  0  0  0
   11.8647   19.9547   31.3958 N   0  0  0  0  0  0
   16.9776   15.9607   33.2418 C   0  0  0  0  0  0
   16.6218   14.8803   34.2571 C   0  0  0  0  0  0
   17.3928   13.7191   34.3365 C   0  0  0  0  0  0
   17.0147   12.6875   35.1907 C   0  0  0  0  0  0
   15.8595   12.7960   35.9791 C   0  0  0  0  0  0
   15.1414   14.0040   35.9561 C   0  0  0  0  0  0
   15.5185   15.0314   35.0984 C   0  0  0  0  0  0
   15.3987   11.6043   36.7914 C   0  0  0  0  0  0
   16.0845   10.5806   36.8493 O   0  0  0  0  0  0
   14.2079   11.7293   37.4140 N   0  0  0  0  0  0
   13.6145   10.7555   38.2254 C   0  0  0  0  0  0
   13.5272   11.0521   39.5865 C   0  0  0  0  0  0
   12.9971   10.1220   40.4820 C   0  0  0  0  0  0
   12.5044    8.9072   40.0093 C   0  0  0  0  0  0
   12.5508    8.6217   38.6475 C   0  0  0  0  0  0
   13.1117    9.5297   37.7381 C   0  0  0  0  0  0
   13.1174    9.1551   36.2534 C   0  0  0  0  0  0
   14.0178    7.9490   35.9683 C   0  0  0  0  0  0
   13.3920    7.0280   35.1910 O   0  0  0  0  0  0
   15.1601    7.8298   36.3979 O   0  0  0  0  0  0
   12.9921   10.4059   41.9042 C   0  0  0  0  0  0
   12.9930   10.6279   43.0391 N   0  0  0  0  0  0
   13.2408   19.7528   33.4877 H   0  0  0  0  0  0
   14.3247   15.9785   29.3828 H   0  0  0  0  0  0
   16.2479   14.8164   30.5152 H   0  0  0  0  0  0
   11.1856   19.8120   30.6555 H   0  0  0  0  0  0
   11.4522   20.4171   32.1889 H   0  0  0  0  0  0
   17.2296   16.8671   33.7910 H   0  0  0  0  0  0
   17.8985   15.6903   32.7240 H   0  0  0  0  0  0
   18.2645   13.5917   33.7091 H   0  0  0  0  0  0
   17.6091   11.7831   35.1977 H   0  0  0  0  0  0
   14.2616   14.1615   36.5626 H   0  0  0  0  0  0
   14.9317   15.9369   35.0721 H   0  0  0  0  0  0
   13.7566   12.6287   37.3806 H   0  0  0  0  0  0
   13.9128   11.9954   39.9469 H   0  0  0  0  0  0
   12.0903    8.1715   40.6861 H   0  0  0  0  0  0
   12.1583    7.6759   38.2968 H   0  0  0  0  0  0
   13.4494    9.9782   35.6223 H   0  0  0  0  0  0
   12.0916    8.9520   35.9460 H   0  0  0  0  0  0
   12.4750    7.2387   34.9659 H   0  0  0  0  0  0
  1  2  1  0  0  0
  1  4  1  0  0  0
  1 34  1  0  0  0
  2  3  2  0  0  0
  2 11  1  0  0  0
  3  6  1  0  0  0
  4  5  1  0  0  0
  4 10  2  0  0  0
  5  6  2  0  0  0
  5  9  1  0  0  0
  6  7  1  0  0  0
  7  8  1  0  0  0
  7 35  1  0  0  0
  8  9  2  0  0  0
  8 36  1  0  0  0
  9 12  1  0  0  0
 11 37  1  0  0  0
 11 38  1  0  0  0
 12 13  1  0  0  0
 12 39  1  0  0  0
 12 40  1  0  0  0
 13 14  2  0  0  0
 13 18  1  0  0  0
 14 15  1  0  0  0
 14 41  1  0  0  0
 15 16  2  0  0  0
 15 42  1  0  0  0
 16 17  1  0  0  0
 16 19  1  0  0  0
 17 18  2  0  0  0
 17 43  1  0  0  0
 18 44  1  0  0  0
 19 20  2  0  0  0
 19 21  1  0  0  0
 21 22  1  0  0  0
 21 45  1  0  0  0
 22 23  2  0  0  0
 22 27  1  0  0  0
 23 24  1  0  0  0
 23 46  1  0  0  0
 24 25  2  0  0  0
 24 32  1  0  0  0
 25 26  1  0  0  0
 25 47  1  0  0  0
 26 27  2  0  0  0
 26 48  1  0  0  0
 27 28  1  0  0  0
 28 29  1  0  0  0
 28 49  1  0  0  0
 28 50  1  0  0  0
 29 30  1  0  0  0
 29 31  2  0  0  0
 30 51  1  0  0  0
 32 33  3  0  0  0
M  END
> <s_m_entry_id>
40934

> <s_m_entry_name>
dock_pv.51

> <s_m_Source_Path>
/home/csk/Desktop/cluster/DUD-E-result/tysy

> <s_m_Source_File>
dock_pv.maegz

> <i_m_Source_File_Index>
51

> <chembl_id>
CHEMBL4579109

> <chembl_pref_name>
None

> <i_lp_mmshare_version>
53161

> <r_lp_tautomer_probability>
1

> <s_lp_Force_Field>
OPLS_2005

> <r_lp_Energy>
30.411651

> <b_lp_Chiralities_Consistent>
1

> <s_lp_Variant>
CHEMBL1952_lig330 -1

> <s_i_glide_gridfile>
glide-grid_1syn

> <i_i_glide_lignum>
605

> <i_i_glide_rotatable_bonds>
8

> <r_i_docking_score>
-8.7716641155914

> <r_i_glide_ligand_efficiency>
-0.26580800350277

> <r_i_glide_ligand_efficiency_sa>
-0.852588295429091

> <r_i_glide_ligand_efficiency_ln>
-1.95077268206142

> <r_i_glide_gscore>
-8.7716641155914

> <r_i_glide_lipo>
-2.85397917410249

> <r_i_glide_hbond>
-0.462047359522566

> <r_i_glide_metal>
0

> <r_i_glide_rewards>
-1.61489800270041

> <r_i_glide_evdw>
-48.5971603393555

> <r_i_glide_ecoul>
-13.9220495223999

> <r_i_glide_erotb>
0.714630460069848

> <r_i_glide_esite>
-0.0372045940080249

> <r_i_glide_emodel>
-96.1639237563643

> <r_i_glide_energy>
-62.5192098617554

> <r_i_glide_einternal>
4.00180721282959

> <i_i_glide_confnum>
19

> <i_i_glide_posenum>
362

> <r_i_glide_eff_state_penalty>
0

> <s_user_duplicate_titles>
CHEMBL1952_lig330 

> <i_f3d_flags>
0

> <s_m_subgroup_title>
dock_pv

> <s_m_subgroupid>
dock_pv

> <b_m_subgroup_collapsed>
1

$$$$
CHEMBL1952_lig159
                    3D
 Schrodinger Suite 2021-1.
 30 32  0  0  1  0            999 V2000
   13.5040   19.0270   32.9371 N   0  0  0  0  0  0
   12.7827   18.9917   31.7718 C   0  0  0  0  0  0
   13.0134   18.0808   30.8895 N   0  0  0  0  0  0
   14.5342   18.2206   33.3170 C   0  0  0  0  0  0
   14.8181   17.1991   32.3044 C   0  0  0  0  0  0
   14.0263   17.1999   31.1550 C   0  0  0  0  0  0
   14.4990   15.9576   30.0520 S   0  0  0  0  0  0
   15.7910   15.4297   31.1055 C   0  0  0  0  0  0
   15.8077   16.1878   32.2868 C   0  0  0  0  0  0
   16.7124   14.3126   30.6684 C   0  0  0  0  0  0
   17.0676   15.9835   33.5207 S   0  0  0  0  0  0
   11.7931   19.9726   31.5916 N   0  0  0  0  0  0
   15.0765   18.4205   34.3911 O   0  0  0  0  0  0
   16.3657   14.7896   34.6144 C   0  0  0  0  0  0
   15.1496   15.0300   35.2562 C   0  0  0  0  0  0
   14.6277   14.0846   36.1381 C   0  0  0  0  0  0
   15.3114   12.8919   36.3766 C   0  0  0  0  0  0
   16.5339   12.6488   35.7336 C   0  0  0  0  0  0
   17.0628   13.6051   34.8636 C   0  0  0  0  0  0
   17.4032   11.1754   35.9852 Cl  0  0  0  0  0  0
   14.6222   11.7401   37.4685 Cl  0  0  0  0  0  0
   13.2793   19.7307   33.6349 H   0  0  0  0  0  0
   17.1814   13.8058   31.5110 H   0  0  0  0  0  0
   16.1924   13.5448   30.0938 H   0  0  0  0  0  0
   17.5167   14.6901   30.0369 H   0  0  0  0  0  0
   11.0959   19.8279   30.8662 H   0  0  0  0  0  0
   11.4084   20.4282   32.4043 H   0  0  0  0  0  0
   14.6138   15.9515   35.0917 H   0  0  0  0  0  0
   13.6887   14.2797   36.6352 H   0  0  0  0  0  0
   18.0056   13.4201   34.3696 H   0  0  0  0  0  0
  1  2  1  0  0  0
  1  4  1  0  0  0
  1 22  1  0  0  0
  2 12  1  0  0  0
  2  3  2  0  0  0
  3  6  1  0  0  0
  4 13  2  0  0  0
  4  5  1  0  0  0
  5  6  2  0  0  0
  5  9  1  0  0  0
  6  7  1  0  0  0
  7  8  1  0  0  0
  8 10  1  0  0  0
  8  9  2  0  0  0
  9 11  1  0  0  0
 10 23  1  0  0  0
 10 24  1  0  0  0
 10 25  1  0  0  0
 11 14  1  0  0  0
 12 26  1  0  0  0
 12 27  1  0  0  0
 14 15  2  0  0  0
 14 19  1  0  0  0
 15 16  1  0  0  0
 15 28  1  0  0  0
 16 17  2  0  0  0
 16 29  1  0  0  0
 17 18  1  0  0  0
 17 21  1  0  0  0
 18 19  2  0  0  0
 18 20  1  0  0  0
 19 30  1  0  0  0
M  END
> <s_m_entry_id>
40935

> <s_m_entry_name>
dock_pv.52

> <s_m_Source_Path>
/home/csk/Desktop/cluster/DUD-E-result/tysy

> <s_m_Source_File>
dock_pv.maegz

> <i_m_Source_File_Index>
52

> <chembl_id>
CHEMBL492838

> <chembl_pref_name>
None

> <i_lp_mmshare_version>
53161

> <r_lp_tautomer_probability>
1

> <s_lp_Force_Field>
OPLS_2005

> <r_lp_Energy>
15.538228

> <b_lp_Chiralities_Consistent>
1

> <s_lp_Variant>
CHEMBL1952_lig159-1

> <s_i_glide_gridfile>
glide-grid_1syn

> <i_i_glide_lignum>
336

> <i_i_glide_rotatable_bonds>
2

> <r_i_docking_score>
-8.76098930614199

> <r_i_glide_ligand_efficiency>
-0.417189966959142

> <r_i_glide_ligand_efficiency_sa>
-1.15099548481914

> <r_i_glide_ligand_efficiency_ln>
-2.16613690269781

> <r_i_glide_gscore>
-8.76098930614199

> <r_i_glide_lipo>
-3.91529398841693

> <r_i_glide_hbond>
-0.456

> <r_i_glide_metal>
0

> <r_i_glide_rewards>
-1.46294490059391

> <r_i_glide_evdw>
-43.0556907653809

> <r_i_glide_ecoul>
-7.0388331413269

> <r_i_glide_erotb>
0.298448702210019

> <r_i_glide_esite>
-0.0165896098730994

> <r_i_glide_emodel>
-77.4509757844125

> <r_i_glide_energy>
-50.0945239067078

> <r_i_glide_einternal>
0.676008760929108

> <i_i_glide_confnum>
3

> <i_i_glide_posenum>
267

> <r_i_glide_eff_state_penalty>
0

> <s_user_duplicate_titles>
CHEMBL1952_lig159,469460

> <i_f3d_flags>
0

> <s_m_subgroup_title>
dock_pv

> <s_m_subgroupid>
dock_pv

> <b_m_subgroup_collapsed>
1

$$$$
CHEMBL1952_lig196
                    3D
 Schrodinger Suite 2021-1.
 58 60  0  0  1  0            999 V2000
   13.7230   18.1893   31.7406 N   0  0  0  0  0  0
   13.6592   17.6231   30.5887 C   0  0  0  0  0  0
   14.4577   16.5516   30.2134 N   0  0  0  0  0  0
   14.6674   17.8272   32.7071 C   0  0  0  0  0  0
   12.6282   18.0849   29.5422 C   0  0  0  0  0  0
   14.8595   18.3976   33.7798 O   0  0  0  0  0  0
   15.5365   16.6329   32.3497 C   0  0  0  0  0  0
   15.4121   16.0327   31.0935 C   0  0  0  0  0  0
   16.2314   14.9653   30.7379 C   0  0  0  0  0  0
   17.1632   14.4727   31.6584 C   0  0  0  0  0  0
   17.2817   15.0552   32.9273 C   0  0  0  0  0  0
   16.4804   16.1494   33.2593 C   0  0  0  0  0  0
   18.3142   14.5457   33.9269 C   0  0  0  0  0  0
   17.9800   13.2224   34.4737 N   0  0  0  0  0  0
   16.8594   12.9852   35.3125 C   0  0  0  0  0  0
   16.4355   11.6780   35.5926 C   0  0  0  0  0  0
   15.4029   11.4362   36.4930 C   0  0  0  0  0  0
   14.7586   12.4988   37.1360 C   0  0  0  0  0  0
   15.1200   13.8103   36.7950 C   0  0  0  0  0  0
   16.1599   14.0434   35.9039 C   0  0  0  0  0  0
   13.7936   12.2139   38.2620 C   0  0  0  0  0  0
   13.8153   11.1259   38.8397 O   0  0  0  0  0  0
   12.9839   13.2251   38.6293 N   0  0  0  0  0  0
   12.1245   13.2690   39.8216 C   0  0  1  0  0  0
   11.0425   12.1440   39.8127 C   0  0  0  0  0  0
   12.9411   13.3375   41.1325 C   0  0  0  0  0  0
   13.7901   14.4065   41.0988 O   0  0  0  0  0  0
   12.7882   12.5864   42.0705 O   0  0  0  0  0  0
    9.9558   12.3040   38.7289 C   0  0  0  0  0  0
    9.0683   13.5265   38.9591 C   0  0  0  0  0  0
    8.3031   13.8281   37.8769 O   0  0  0  0  0  0
    9.0655   14.1998   39.9910 O   0  0  0  0  0  0
   19.0120   12.1964   34.3342 C   0  0  0  0  0  0
   12.1920   19.4219   29.7383 O   0  0  0  0  0  0
   14.3691   16.1437   29.2973 H   0  0  0  0  0  0
   13.0472   18.0198   28.5389 H   0  0  0  0  0  0
   11.7595   17.4279   29.5644 H   0  0  0  0  0  0
   16.1458   14.5046   29.7656 H   0  0  0  0  0  0
   17.7966   13.6380   31.3879 H   0  0  0  0  0  0
   16.5890   16.6193   34.2241 H   0  0  0  0  0  0
   18.4559   15.2579   34.7418 H   0  0  0  0  0  0
   19.2750   14.5113   33.4089 H   0  0  0  0  0  0
   16.9135   10.8280   35.1328 H   0  0  0  0  0  0
   15.1414   10.4121   36.7203 H   0  0  0  0  0  0
   14.6716   14.6708   37.2701 H   0  0  0  0  0  0
   16.4567   15.0634   35.7422 H   0  0  0  0  0  0
   12.9424   14.0306   38.0243 H   0  0  0  0  0  0
   11.6146   14.2283   39.7874 H   0  0  0  0  0  0
   10.5461   12.1063   40.7795 H   0  0  0  0  0  0
   11.4965   11.1595   39.7068 H   0  0  0  0  0  0
   13.8088   14.8029   40.2252 H   0  0  0  0  0  0
    9.3146   11.4225   38.7126 H   0  0  0  0  0  0
   10.4148   12.3730   37.7421 H   0  0  0  0  0  0
    7.8534   14.6709   38.0293 H   0  0  0  0  0  0
   18.9521   11.3903   35.0650 H   0  0  0  0  0  0
   18.9909   11.7603   33.3344 H   0  0  0  0  0  0
   19.9951   12.6498   34.4553 H   0  0  0  0  0  0
   11.2529   19.4304   29.9753 H   0  0  0  0  0  0
  1  2  2  0  0  0
  1  4  1  0  0  0
  2  3  1  0  0  0
  2  5  1  0  0  0
  3  8  1  0  0  0
  3 35  1  0  0  0
  4  6  2  0  0  0
  4  7  1  0  0  0
  5 34  1  0  0  0
  5 36  1  0  0  0
  5 37  1  0  0  0
  7 12  1  0  0  0
  7  8  2  0  0  0
  8  9  1  0  0  0
  9 10  2  0  0  0
  9 38  1  0  0  0
 10 11  1  0  0  0
 10 39  1  0  0  0
 11 12  2  0  0  0
 11 13  1  0  0  0
 12 40  1  0  0  0
 13 14  1  0  0  0
 13 41  1  0  0  0
 13 42  1  0  0  0
 14 15  1  0  0  0
 14 33  1  0  0  0
 15 20  1  0  0  0
 15 16  2  0  0  0
 16 17  1  0  0  0
 16 43  1  0  0  0
 17 18  2  0  0  0
 17 44  1  0  0  0
 18 19  1  0  0  0
 18 21  1  0  0  0
 19 20  2  0  0  0
 19 45  1  0  0  0
 20 46  1  0  0  0
 21 22  2  0  0  0
 21 23  1  0  0  0
 23 24  1  0  0  0
 23 47  1  0  0  0
 24 25  1  0  0  0
 24 26  1  0  0  0
 24 48  1  0  0  0
 25 29  1  0  0  0
 25 49  1  0  0  0
 25 50  1  0  0  0
 26 27  1  0  0  0
 26 28  2  0  0  0
 27 51  1  0  0  0
 29 30  1  0  0  0
 29 52  1  0  0  0
 29 53  1  0  0  0
 30 31  1  0  0  0
 30 32  2  0  0  0
 31 54  1  0  0  0
 33 55  1  0  0  0
 33 56  1  0  0  0
 33 57  1  0  0  0
 34 58  1  0  0  0
M  END
> <s_m_entry_id>
40936

> <s_m_entry_name>
dock_pv.53

> <s_m_Source_Path>
/home/csk/Desktop/cluster/DUD-E-result/tysy

> <s_m_Source_File>
dock_pv.maegz

> <i_m_Source_File_Index>
53

> <chembl_id>
CHEMBL321284

> <chembl_pref_name>
None

> <i_lp_mmshare_version>
53161

> <r_lp_tautomer_probability>
0.116051

> <s_lp_Force_Field>
OPLS_2005

> <r_lp_Energy>
19.229759

> <b_lp_Chiralities_Consistent>
1

> <s_lp_Variant>
CHEMBL1952_lig196-2

> <s_i_glide_gridfile>
glide-grid_1syn

> <i_i_glide_lignum>
390

> <i_i_glide_rotatable_bonds>
14

> <r_i_docking_score>
-8.75528408364819

> <r_i_glide_ligand_efficiency>
-0.257508355401417

> <r_i_glide_ligand_efficiency_sa>
-0.834227106105393

> <r_i_glide_ligand_efficiency_ln>
-1.93428783147817

> <r_i_glide_gscore>
-8.75528408364819

> <r_i_glide_lipo>
-3.30501797905275

> <r_i_glide_hbond>
-0.604515029222248

> <r_i_glide_metal>
0

> <r_i_glide_rewards>
-1.18030809763886

> <r_i_glide_evdw>
-55.6018486022949

> <r_i_glide_ecoul>
-12.2378616333008

> <r_i_glide_erotb>
1.01201650645447

> <r_i_glide_esite>
-0.0616878090789317

> <r_i_glide_emodel>
-102.75658069055

> <r_i_glide_energy>
-67.8397102355957

> <r_i_glide_einternal>
6.62537908554077

> <i_i_glide_confnum>
20

> <i_i_glide_posenum>
169

> <r_i_glide_eff_state_penalty>
0

> <s_user_duplicate_titles>
CHEMBL1952_lig196,170999

> <i_f3d_flags>
0

> <s_m_subgroup_title>
dock_pv

> <s_m_subgroupid>
dock_pv

> <b_m_subgroup_collapsed>
1

$$$$
CHEMBL1952_lig169
                    3D
 Schrodinger Suite 2021-1.
 33 35  0  0  1  0            999 V2000
   15.3412   12.8818   36.2863 C   0  0  0  0  0  0
   14.6033   14.0381   36.0326 C   0  0  0  0  0  0
   15.1142   15.0245   35.1869 C   0  0  0  0  0  0
   16.3587   14.8417   34.5758 C   0  0  0  0  0  0
   17.1061   13.6935   34.8520 C   0  0  0  0  0  0
   16.5910   12.7070   35.6932 C   0  0  0  0  0  0
   17.0331   16.0507   33.4748 S   0  0  0  0  0  0
   15.7888   16.2272   32.2181 C   0  0  0  0  0  0
   14.4891   16.0694   29.9693 S   0  0  0  0  0  0
   15.8014   15.5244   30.9894 C   0  0  0  0  0  0
   13.9985   17.2537   31.1137 C   0  0  0  0  0  0
   14.7783   17.2170   32.2671 C   0  0  0  0  0  0
   14.4740   18.2024   33.3088 C   0  0  0  0  0  0
   13.4563   19.0280   32.9409 N   0  0  0  0  0  0
   12.7562   19.0290   31.7646 C   0  0  0  0  0  0
   12.9910   18.1423   30.8614 N   0  0  0  0  0  0
   16.7634   14.5020   30.3932 C   0  0  0  0  0  0
   11.7920   20.0318   31.5910 N   0  0  0  0  0  0
   14.9974   18.3684   34.3968 O   0  0  0  0  0  0
   17.3676   13.4846   31.3673 C   0  0  0  0  0  0
   17.4852   11.2603   35.9859 Cl  0  0  0  0  0  0
   13.0431   14.2265   36.7424 Cl  0  0  0  0  0  0
   14.9405   12.1176   36.9349 H   0  0  0  0  0  0
   14.5343   15.9141   34.9996 H   0  0  0  0  0  0
   18.0744   13.5514   34.3935 H   0  0  0  0  0  0
   13.2321   19.7209   33.6527 H   0  0  0  0  0  0
   16.2568   13.9293   29.6136 H   0  0  0  0  0  0
   17.5727   15.0239   29.8817 H   0  0  0  0  0  0
   11.0985   19.8934   30.8625 H   0  0  0  0  0  0
   11.3942   20.4695   32.4066 H   0  0  0  0  0  0
   17.8538   12.6773   30.8228 H   0  0  0  0  0  0
   18.1249   13.9310   32.0104 H   0  0  0  0  0  0
   16.5988   13.0325   31.9901 H   0  0  0  0  0  0
  1  6  1  0  0  0
  1  2  2  0  0  0
  1 23  1  0  0  0
  2  3  1  0  0  0
  2 22  1  0  0  0
  3  4  2  0  0  0
  3 24  1  0  0  0
  4  7  1  0  0  0
  4  5  1  0  0  0
  5  6  2  0  0  0
  5 25  1  0  0  0
  6 21  1  0  0  0
  7  8  1  0  0  0
  8 10  2  0  0  0
  8 12  1  0  0  0
  9 11  1  0  0  0
  9 10  1  0  0  0
 10 17  1  0  0  0
 11 12  2  0  0  0
 11 16  1  0  0  0
 12 13  1  0  0  0
 13 14  1  0  0  0
 13 19  2  0  0  0
 14 15  1  0  0  0
 14 26  1  0  0  0
 15 16  2  0  0  0
 15 18  1  0  0  0
 17 20  1  0  0  0
 17 27  1  0  0  0
 17 28  1  0  0  0
 18 29  1  0  0  0
 18 30  1  0  0  0
 20 31  1  0  0  0
 20 32  1  0  0  0
 20 33  1  0  0  0
M  END
> <s_m_entry_id>
40937

> <s_m_entry_name>
dock_pv.54

> <s_m_Source_Path>
/home/csk/Desktop/cluster/DUD-E-result/tysy

> <s_m_Source_File>
dock_pv.maegz

> <i_m_Source_File_Index>
54

> <chembl_id>
CHEMBL560912

> <chembl_pref_name>
None

> <i_lp_mmshare_version>
53161

> <r_lp_tautomer_probability>
1

> <s_lp_Force_Field>
OPLS_2005

> <r_lp_Energy>
13.024666

> <b_lp_Chiralities_Consistent>
1

> <s_lp_Variant>
CHEMBL1952_lig169-1

> <s_i_glide_gridfile>
glide-grid_1syn

> <i_i_glide_lignum>
346

> <i_i_glide_rotatable_bonds>
3

> <r_i_docking_score>
-8.75417729016246

> <r_i_glide_ligand_efficiency>
-0.397917149552839

> <r_i_glide_ligand_efficiency_sa>
-1.11497950224052

> <r_i_glide_ligand_efficiency_ln>
-2.13984024609087

> <r_i_glide_gscore>
-8.75417729016246

> <r_i_glide_lipo>
-3.84484885481781

> <r_i_glide_hbond>
-0.456

> <r_i_glide_metal>
0

> <r_i_glide_rewards>
-1.43923603914278

> <r_i_glide_evdw>
-45.4856147766113

> <r_i_glide_ecoul>
-6.66965436935425

> <r_i_glide_erotb>
0.278674692877881

> <r_i_glide_esite>
-0.0180381948460454

> <r_i_glide_emodel>
-78.9371322618498

> <r_i_glide_energy>
-52.1552691459656

> <r_i_glide_einternal>
2.09532523155212

> <i_i_glide_confnum>
6

> <i_i_glide_posenum>
287

> <r_i_glide_eff_state_penalty>
0

> <s_user_duplicate_titles>
CHEMBL1952_lig169,556625

> <i_f3d_flags>
0

> <s_m_subgroup_title>
dock_pv

> <s_m_subgroupid>
dock_pv

> <b_m_subgroup_collapsed>
1

$$$$
CHEMBL1952_lig168
                    3D
 Schrodinger Suite 2021-1.
 33 35  0  0  1  0            999 V2000
   15.2879   12.9014   36.3749 C   0  0  0  0  0  0
   14.5828   14.0848   36.1476 C   0  0  0  0  0  0
   15.0944   15.0529   35.2848 C   0  0  0  0  0  0
   16.3194   14.8452   34.6498 C   0  0  0  0  0  0
   17.0355   13.6696   34.8861 C   0  0  0  0  0  0
   16.5178   12.6889   35.7355 C   0  0  0  0  0  0
   17.0116   16.0762   33.5910 S   0  0  0  0  0  0
   15.7944   16.2280   32.3205 C   0  0  0  0  0  0
   14.5440   15.9419   30.0671 S   0  0  0  0  0  0
   15.8056   15.4280   31.1698 C   0  0  0  0  0  0
   14.0350   17.2053   31.1348 C   0  0  0  0  0  0
   14.7929   17.2165   32.3043 C   0  0  0  0  0  0
   14.4751   18.2287   33.3081 C   0  0  0  0  0  0
   13.4514   19.0279   32.9046 N   0  0  0  0  0  0
   12.7695   18.9960   31.7177 C   0  0  0  0  0  0
   13.0259   18.0845   30.8397 N   0  0  0  0  0  0
   16.7098   14.2508   30.8356 C   0  0  0  0  0  0
   11.7920   19.9825   31.5200 N   0  0  0  0  0  0
   14.9923   18.4371   34.3931 O   0  0  0  0  0  0
   18.2031   14.6132   30.7689 C   0  0  0  0  0  0
   14.6162   11.7226   37.4484 Cl  0  0  0  0  0  0
   17.4097   11.2249   35.9680 Cl  0  0  0  0  0  0
   13.6357   14.2528   36.6397 H   0  0  0  0  0  0
   14.5428   15.9677   35.1302 H   0  0  0  0  0  0
   17.9862   13.5095   34.3972 H   0  0  0  0  0  0
   13.2096   19.7300   33.6009 H   0  0  0  0  0  0
   16.5922   13.4726   31.5907 H   0  0  0  0  0  0
   16.4177   13.7808   29.8948 H   0  0  0  0  0  0
   11.1019   19.8286   30.7907 H   0  0  0  0  0  0
   11.3918   20.4432   32.3205 H   0  0  0  0  0  0
   18.7968   13.7157   30.6211 H   0  0  0  0  0  0
   18.4096   15.2930   29.9444 H   0  0  0  0  0  0
   18.5882   15.0695   31.6742 H   0  0  0  0  0  0
  1  6  1  0  0  0
  1  2  2  0  0  0
  1 21  1  0  0  0
  2  3  1  0  0  0
  2 23  1  0  0  0
  3  4  2  0  0  0
  3 24  1  0  0  0
  4  7  1  0  0  0
  4  5  1  0  0  0
  5  6  2  0  0  0
  5 25  1  0  0  0
  6 22  1  0  0  0
  7  8  1  0  0  0
  8 10  2  0  0  0
  8 12  1  0  0  0
  9 11  1  0  0  0
  9 10  1  0  0  0
 10 17  1  0  0  0
 11 12  2  0  0  0
 11 16  1  0  0  0
 12 13  1  0  0  0
 13 14  1  0  0  0
 13 19  2  0  0  0
 14 15  1  0  0  0
 14 26  1  0  0  0
 15 16  2  0  0  0
 15 18  1  0  0  0
 17 20  1  0  0  0
 17 27  1  0  0  0
 17 28  1  0  0  0
 18 29  1  0  0  0
 18 30  1  0  0  0
 20 31  1  0  0  0
 20 32  1  0  0  0
 20 33  1  0  0  0
M  END
> <s_m_entry_id>
40938

> <s_m_entry_name>
dock_pv.55

> <s_m_Source_Path>
/home/csk/Desktop/cluster/DUD-E-result/tysy

> <s_m_Source_File>
dock_pv.maegz

> <i_m_Source_File_Index>
55

> <chembl_id>
CHEMBL556091

> <chembl_pref_name>
None

> <i_lp_mmshare_version>
53161

> <r_lp_tautomer_probability>
1

> <s_lp_Force_Field>
OPLS_2005

> <r_lp_Energy>
12.086801

> <b_lp_Chiralities_Consistent>
1

> <s_lp_Variant>
CHEMBL1952_lig168-1

> <s_i_glide_gridfile>
glide-grid_1syn

> <i_i_glide_lignum>
345

> <i_i_glide_rotatable_bonds>
3

> <r_i_docking_score>
-8.75348250676566

> <r_i_glide_ligand_efficiency>
-0.397885568489348

> <r_i_glide_ligand_efficiency_sa>
-1.11489101085861

> <r_i_glide_ligand_efficiency_ln>
-2.13967041568585

> <r_i_glide_gscore>
-8.75348250676566

> <r_i_glide_lipo>
-4.02950750622778

> <r_i_glide_hbond>
-0.455685485599604

> <r_i_glide_metal>
0

> <r_i_glide_rewards>
-1.29567213832365

> <r_i_glide_evdw>
-43.8749771118164

> <r_i_glide_ecoul>
-6.93985509872437

> <r_i_glide_erotb>
0.278674692877881

> <r_i_glide_esite>
-0.016564949093039

> <r_i_glide_emodel>
-77.5789703883631

> <r_i_glide_energy>
-50.8148322105408

> <r_i_glide_einternal>
2.37319850921631

> <i_i_glide_confnum>
6

> <i_i_glide_posenum>
90

> <r_i_glide_eff_state_penalty>
0

> <s_user_duplicate_titles>
CHEMBL1952_lig168,560143

> <i_f3d_flags>
0

> <s_m_subgroup_title>
dock_pv

> <s_m_subgroupid>
dock_pv

> <b_m_subgroup_collapsed>
1

$$$$
CHEMBL1952_lig290
                    3D
 Schrodinger Suite 2021-1.
 34 37  0  0  1  0            999 V2000
   13.5051   19.0279   33.0897 N   0  0  0  0  0  0
   12.7365   19.2432   31.9651 C   0  0  0  0  0  0
   12.8768   18.5009   30.9217 N   0  0  0  0  0  0
   14.4532   18.0619   33.2975 C   0  0  0  0  0  0
   14.6353   17.2595   32.0863 C   0  0  0  0  0  0
   13.8231   17.5272   30.9970 C   0  0  0  0  0  0
   14.0897   16.6540   29.9858 N   0  0  0  0  0  0
   15.4955   16.1588   31.7093 C   0  0  0  0  0  0
   15.0707   15.7701   30.3868 C   0  0  0  0  0  0
   15.6105   14.6678   29.7162 C   0  0  0  0  0  0
   16.5921   13.9461   30.3906 C   0  0  0  0  0  0
   17.0910   14.3383   31.6161 C   0  0  0  0  0  0
   16.5600   15.4284   32.2945 C   0  0  0  0  0  0
   17.2701   15.8278   33.8520 S   0  0  0  0  0  0
   16.7129   14.4824   34.8429 C   0  0  0  0  0  0
   14.9929   17.9595   34.3909 O   0  0  0  0  0  0
   11.7922   20.2835   31.9908 N   0  0  0  0  0  0
   15.5534   14.6269   35.6036 C   0  0  0  0  0  0
   15.0937   13.5545   36.3637 C   0  0  0  0  0  0
   17.4246   13.2819   34.8437 C   0  0  0  0  0  0
   16.9563   12.2067   35.5923 C   0  0  0  0  0  0
   15.7940   12.3485   36.3500 C   0  0  0  0  0  0
   13.3568   19.6511   33.8798 H   0  0  0  0  0  0
   13.5968   16.6984   29.1080 H   0  0  0  0  0  0
   15.2617   14.3546   28.7423 H   0  0  0  0  0  0
   16.9929   13.0373   29.9786 H   0  0  0  0  0  0
   17.8924   13.7583   32.0526 H   0  0  0  0  0  0
   11.0693   20.2778   31.2812 H   0  0  0  0  0  0
   11.4752   20.6316   32.8839 H   0  0  0  0  0  0
   15.0131   15.5628   35.6052 H   0  0  0  0  0  0
   14.1983   13.6590   36.9581 H   0  0  0  0  0  0
   18.3290   13.1775   34.2615 H   0  0  0  0  0  0
   17.4985   11.2724   35.5938 H   0  0  0  0  0  0
   15.4375   11.5168   36.9391 H   0  0  0  0  0  0
  1  2  1  0  0  0
  1  4  1  0  0  0
  1 23  1  0  0  0
  2  3  2  0  0  0
  2 17  1  0  0  0
  3  6  1  0  0  0
  4  5  1  0  0  0
  4 16  2  0  0  0
  5  6  2  0  0  0
  5  8  1  0  0  0
  6  7  1  0  0  0
  7  9  1  0  0  0
  7 24  1  0  0  0
  8  9  2  0  0  0
  8 13  1  0  0  0
  9 10  1  0  0  0
 10 11  2  0  0  0
 10 25  1  0  0  0
 11 12  1  0  0  0
 11 26  1  0  0  0
 12 13  2  0  0  0
 12 27  1  0  0  0
 13 14  1  0  0  0
 14 15  1  0  0  0
 15 18  2  0  0  0
 15 20  1  0  0  0
 17 28  1  0  0  0
 17 29  1  0  0  0
 18 19  1  0  0  0
 18 30  1  0  0  0
 19 22  2  0  0  0
 19 31  1  0  0  0
 20 21  2  0  0  0
 20 32  1  0  0  0
 21 22  1  0  0  0
 21 33  1  0  0  0
 22 34  1  0  0  0
M  END
> <s_m_entry_id>
40939

> <s_m_entry_name>
dock_pv.56

> <s_m_Source_Path>
/home/csk/Desktop/cluster/DUD-E-result/tysy

> <s_m_Source_File>
dock_pv.maegz

> <i_m_Source_File_Index>
56

> <chembl_id>
CHEMBL3099580

> <chembl_pref_name>
None

> <i_lp_mmshare_version>
53161

> <r_lp_tautomer_probability>
1

> <s_lp_Force_Field>
OPLS_2005

> <r_lp_Energy>
24.290936

> <b_lp_Chiralities_Consistent>
1

> <s_lp_Variant>
CHEMBL1952_lig290-1

> <s_i_glide_gridfile>
glide-grid_1syn

> <i_i_glide_lignum>
560

> <i_i_glide_rotatable_bonds>
2

> <r_i_docking_score>
-8.75317920710985

> <r_i_glide_ligand_efficiency>
-0.397871782141357

> <r_i_glide_ligand_efficiency_sa>
-1.11485238096935

> <r_i_glide_ligand_efficiency_ln>
-2.13959627818685

> <r_i_glide_gscore>
-8.75317920710985

> <r_i_glide_lipo>
-3.84233063898199

> <r_i_glide_hbond>
-0.456

> <r_i_glide_metal>
0

> <r_i_glide_rewards>
-1.96608250789336

> <r_i_glide_evdw>
-43.7856636047363

> <r_i_glide_ecoul>
-4.43086004257202

> <r_i_glide_erotb>
0.389133043525866

> <r_i_glide_esite>
-0.0239869171377467

> <r_i_glide_emodel>
-74.4228636003836

> <r_i_glide_energy>
-48.2165236473083

> <r_i_glide_einternal>
0.764670848846436

> <i_i_glide_confnum>
14

> <i_i_glide_posenum>
289

> <r_i_glide_eff_state_penalty>
0

> <s_user_duplicate_titles>
CHEMBL1952_lig290

> <i_f3d_flags>
0

> <s_m_subgroup_title>
dock_pv

> <s_m_subgroupid>
dock_pv

> <b_m_subgroup_collapsed>
1

$$$$
CHEMBL1952_lig162
                    3D
 Schrodinger Suite 2021-1.
 30 32  0  0  1  0            999 V2000
   13.4901   19.0272   32.9402 N   0  0  0  0  0  0
   12.7796   18.9985   31.7698 C   0  0  0  0  0  0
   13.0181   18.0936   30.8830 N   0  0  0  0  0  0
   14.5231   18.2264   33.3185 C   0  0  0  0  0  0
   14.8093   17.2052   32.3099 C   0  0  0  0  0  0
   14.0280   17.2099   31.1539 C   0  0  0  0  0  0
   14.5075   15.9687   30.0532 S   0  0  0  0  0  0
   15.7932   15.4422   31.1161 C   0  0  0  0  0  0
   15.7937   16.1909   32.3021 C   0  0  0  0  0  0
   16.7300   14.3320   30.6943 C   0  0  0  0  0  0
   17.0272   15.9634   33.5575 S   0  0  0  0  0  0
   11.7921   19.9787   31.5905 N   0  0  0  0  0  0
   15.0664   18.4294   34.3912 O   0  0  0  0  0  0
   16.2804   14.8182   34.6852 C   0  0  0  0  0  0
   14.9948   15.0302   35.1885 C   0  0  0  0  0  0
   16.4665   12.7966   35.9911 C   0  0  0  0  0  0
   17.0218   13.7097   35.0976 C   0  0  0  0  0  0
   15.1777   13.0040   36.4784 C   0  0  0  0  0  0
   14.4428   14.1205   36.0858 C   0  0  0  0  0  0
   14.6363   12.1179   37.3446 F   0  0  0  0  0  0
   13.2629   19.7300   33.6409 H   0  0  0  0  0  0
   17.7741   14.6273   30.8005 H   0  0  0  0  0  0
   16.5926   13.4395   31.3039 H   0  0  0  0  0  0
   16.5899   14.0320   29.6558 H   0  0  0  0  0  0
   11.0946   19.8297   30.8675 H   0  0  0  0  0  0
   11.4005   20.4231   32.4055 H   0  0  0  0  0  0
   14.4224   15.8952   34.8959 H   0  0  0  0  0  0
   17.0350   11.9354   36.3105 H   0  0  0  0  0  0
   18.0220   13.5513   34.7188 H   0  0  0  0  0  0
   13.4488   14.2781   36.4761 H   0  0  0  0  0  0
  1  4  1  0  0  0
  1  2  1  0  0  0
  1 21  1  0  0  0
  2 12  1  0  0  0
  2  3  2  0  0  0
  3  6  1  0  0  0
  4 13  2  0  0  0
  4  5  1  0  0  0
  5  6  2  0  0  0
  5  9  1  0  0  0
  6  7  1  0  0  0
  7  8  1  0  0  0
  8 10  1  0  0  0
  8  9  2  0  0  0
  9 11  1  0  0  0
 10 22  1  0  0  0
 10 23  1  0  0  0
 10 24  1  0  0  0
 11 14  1  0  0  0
 12 25  1  0  0  0
 12 26  1  0  0  0
 14 15  2  0  0  0
 14 17  1  0  0  0
 15 19  1  0  0  0
 15 27  1  0  0  0
 16 18  1  0  0  0
 16 17  2  0  0  0
 16 28  1  0  0  0
 17 29  1  0  0  0
 18 19  2  0  0  0
 18 20  1  0  0  0
 19 30  1  0  0  0
M  END
> <s_m_entry_id>
40940

> <s_m_entry_name>
dock_pv.57

> <s_m_Source_Path>
/home/csk/Desktop/cluster/DUD-E-result/tysy

> <s_m_Source_File>
dock_pv.maegz

> <i_m_Source_File_Index>
57

> <chembl_id>
CHEMBL449543

> <chembl_pref_name>
None

> <i_lp_mmshare_version>
53161

> <r_lp_tautomer_probability>
1

> <s_lp_Force_Field>
OPLS_2005

> <r_lp_Energy>
14.522263

> <b_lp_Chiralities_Consistent>
1

> <s_lp_Variant>
CHEMBL1952_lig162-1

> <s_i_glide_gridfile>
glide-grid_1syn

> <i_i_glide_lignum>
339

> <i_i_glide_rotatable_bonds>
2

> <r_i_docking_score>
-8.73262389413471

> <r_i_glide_ligand_efficiency>
-0.436631194706736

> <r_i_glide_ligand_efficiency_sa>
-1.18519940568333

> <r_i_glide_ligand_efficiency_ln>
-2.18548773948949

> <r_i_glide_gscore>
-8.73262389413471

> <r_i_glide_lipo>
-3.67903102703541

> <r_i_glide_hbond>
-0.456

> <r_i_glide_metal>
0

> <r_i_glide_rewards>
-1.91553376803733

> <r_i_glide_evdw>
-40.9846267700195

> <r_i_glide_ecoul>
-6.71373081207275

> <r_i_glide_erotb>
0.391335745257211

> <r_i_glide_esite>
-0.0171038840072905

> <r_i_glide_emodel>
-73.3070266745665

> <r_i_glide_energy>
-47.6983575820923

> <r_i_glide_einternal>
0.691436409950256

> <i_i_glide_confnum>
4

> <i_i_glide_posenum>
171

> <r_i_glide_eff_state_penalty>
0

> <s_user_duplicate_titles>
CHEMBL1952_lig162

> <i_f3d_flags>
0

> <s_m_subgroup_title>
dock_pv

> <s_m_subgroupid>
dock_pv

> <b_m_subgroup_collapsed>
1

$$$$
CHEMBL1952_lig107
                    3D
 Schrodinger Suite 2021-1.
 71 73  0  0  1  0            999 V2000
   13.1304   18.2657   31.8602 N   0  0  0  0  0  0
   14.0748   17.9861   32.7839 C   0  0  0  0  0  0
   15.0837   17.0078   32.5485 C   0  0  0  0  0  0
   13.1800   17.5755   30.7038 C   0  0  0  0  0  0
   14.0804   16.6215   30.3668 N   0  0  0  0  0  0
   13.5886    9.8679   39.3846 C   0  0  0  0  0  0
   15.7712    9.8496   36.2857 C   0  0  0  0  0  0
   15.0395   16.3328   31.2937 C   0  0  0  0  0  0
   15.2299    9.9808   37.5058 N   0  0  0  0  0  0
   13.5359   11.2127   39.2958 N   0  0  0  0  0  0
   18.8519   14.2404   34.2180 N   0  0  0  0  0  0
   20.2070   14.2234   34.2735 C   0  0  0  0  0  0
   13.3918   12.2963   41.5959 C   0  0  0  0  0  0
   14.3919    9.0692   38.3160 C   0  0  2  0  0  0
   12.7953   12.1295   40.1742 C   0  0  1  0  0  0
   21.4227   14.2279   34.3915 C   0  0  0  0  0  0
   10.2517   13.3120   38.4599 C   0  0  0  0  0  0
   16.1181   16.6936   33.4621 C   0  0  0  0  0  0
   16.5980   11.0175   35.8290 C   0  0  0  0  0  0
   18.0939   13.1737   34.7859 C   0  0  0  0  0  0
   14.3082    5.7476   38.0858 C   0  0  0  0  0  0
   18.2552   15.5812   34.1434 C   0  0  0  0  0  0
   13.0361    9.2535   40.2978 O   0  0  0  0  0  0
   15.6530    8.8645   35.5662 O   0  0  0  0  0  0
   17.0941   15.7485   33.1567 C   0  0  0  0  0  0
    9.5104   13.1547   37.3269 O   0  0  0  0  0  0
   13.6357   13.3695   42.1106 O   0  0  0  0  0  0
   16.0273   15.3562   31.0063 C   0  0  0  0  0  0
    9.7689   13.3660   39.5897 O   0  0  0  0  0  0
   14.5017    6.0352   39.2650 O   0  0  0  0  0  0
   16.1672   12.3349   36.0214 C   0  0  0  0  0  0
   17.7923   10.7819   35.1476 C   0  0  0  0  0  0
   16.9072   13.3960   35.5084 C   0  0  0  0  0  0
   18.5129   11.8442   34.6173 C   0  0  0  0  0  0
   12.2018   17.8813   29.7746 N   0  0  0  0  0  0
   13.4265    8.1380   37.4929 C   0  0  0  0  0  0
   12.6296   13.4836   39.4335 C   0  0  0  0  0  0
   14.1191   18.6280   33.9910 O   0  0  0  0  0  0
   11.7501   13.4261   38.1619 C   0  0  0  0  0  0
   13.9471    6.7576   36.9967 C   0  0  0  0  0  0
   13.5392   11.0823   42.2028 O   0  0  0  0  0  0
   17.0359   15.0731   31.9326 C   0  0  0  0  0  0
   14.4349    4.4814   37.5912 O   0  0  0  0  0  0
   15.5418   10.7972   38.0096 H   0  0  0  0  0  0
   13.9787   11.6572   38.5073 H   0  0  0  0  0  0
   15.0933    8.4640   38.8889 H   0  0  0  0  0  0
   11.7978   11.7164   40.3326 H   0  0  0  0  0  0
   22.4852   14.1905   34.4692 H   0  0  0  0  0  0
   16.1606   17.2350   34.3909 H   0  0  0  0  0  0
   18.9943   16.3512   33.9082 H   0  0  0  0  0  0
   17.9338   15.8280   35.1517 H   0  0  0  0  0  0
   10.0312   13.1463   36.5219 H   0  0  0  0  0  0
   16.0008   14.8411   30.0567 H   0  0  0  0  0  0
   15.2426   12.5529   36.5362 H   0  0  0  0  0  0
   18.1472    9.7757   34.9705 H   0  0  0  0  0  0
   16.5201   14.3892   35.6722 H   0  0  0  0  0  0
   19.3921   11.6217   34.0349 H   0  0  0  0  0  0
   12.2805   17.4960   28.8488 H   0  0  0  0  0  0
   11.5502   18.6246   29.9899 H   0  0  0  0  0  0
   12.5333    7.9075   38.0776 H   0  0  0  0  0  0
   13.0441    8.6894   36.6322 H   0  0  0  0  0  0
   12.2117   14.2286   40.1133 H   0  0  0  0  0  0
   13.6130   13.8736   39.1657 H   0  0  0  0  0  0
   13.4480   19.3185   34.0881 H   0  0  0  0  0  0
   11.8967   14.3420   37.5886 H   0  0  0  0  0  0
   12.0566   12.6052   37.5131 H   0  0  0  0  0  0
   13.1664    6.3112   36.3790 H   0  0  0  0  0  0
   14.8161    6.8376   36.3538 H   0  0  0  0  0  0
   13.3268   10.3537   41.6003 H   0  0  0  0  0  0
   17.7978   14.3483   31.6799 H   0  0  0  0  0  0
   14.1927    4.3518   36.6617 H   0  0  0  0  0  0
  1  2  2  0  0  0
  1  4  1  0  0  0
  2  3  1  0  0  0
  2 38  1  0  0  0
  3 18  1  0  0  0
  3  8  2  0  0  0
  4  5  2  0  0  0
  4 35  1  0  0  0
  5  8  1  0  0  0
  6 14  1  0  0  0
  6 10  1  0  0  0
  6 23  2  0  0  0
  7 19  1  0  0  0
  7  9  1  0  0  0
  7 24  2  0  0  0
  8 28  1  0  0  0
  9 14  1  0  0  0
  9 44  1  0  0  0
 10 15  1  0  0  0
 10 45  1  0  0  0
 11 22  1  0  0  0
 11 12  1  0  0  0
 11 20  1  0  0  0
 12 16  3  0  0  0
 13 15  1  0  0  0
 13 27  2  0  0  0
 13 41  1  0  0  0
 14 36  1  0  0  0
 14 46  1  0  0  0
 15 37  1  0  0  0
 15 47  1  0  0  0
 16 48  1  0  0  0
 17 39  1  0  0  0
 17 26  1  0  0  0
 17 29  2  0  0  0
 18 25  2  0  0  0
 18 49  1  0  0  0
 19 32  1  0  0  0
 19 31  2  0  0  0
 20 33  2  0  0  0
 20 34  1  0  0  0
 21 40  1  0  0  0
 21 30  2  0  0  0
 21 43  1  0  0  0
 22 25  1  0  0  0
 22 50  1  0  0  0
 22 51  1  0  0  0
 25 42  1  0  0  0
 26 52  1  0  0  0
 28 42  2  0  0  0
 28 53  1  0  0  0
 31 33  1  0  0  0
 31 54  1  0  0  0
 32 34  2  0  0  0
 32 55  1  0  0  0
 33 56  1  0  0  0
 34 57  1  0  0  0
 35 58  1  0  0  0
 35 59  1  0  0  0
 36 40  1  0  0  0
 36 60  1  0  0  0
 36 61  1  0  0  0
 37 39  1  0  0  0
 37 62  1  0  0  0
 37 63  1  0  0  0
 38 64  1  0  0  0
 39 65  1  0  0  0
 39 66  1  0  0  0
 40 67  1  0  0  0
 40 68  1  0  0  0
 41 69  1  0  0  0
 42 70  1  0  0  0
 43 71  1  0  0  0
M  END
> <s_m_entry_id>
40941

> <s_m_entry_name>
dock_pv.58

> <s_m_Source_Path>
/home/csk/Desktop/cluster/DUD-E-result/tysy

> <s_m_Source_File>
dock_pv.maegz

> <i_m_Source_File_Index>
58

> <chembl_id>
CHEMBL1160189

> <chembl_pref_name>
None

> <i_lp_mmshare_version>
53161

> <r_lp_tautomer_probability>
1

> <s_lp_Force_Field>
OPLS_2005

> <r_lp_Energy>
15.36963

> <b_lp_Chiralities_Consistent>
1

> <s_lp_Variant>
CHEMBL1952_lig107-1

> <s_i_glide_gridfile>
glide-grid_1syn

> <i_i_glide_lignum>
258

> <i_i_glide_rotatable_bonds>
21

> <r_i_docking_score>
-8.72326119207988

> <r_i_glide_ligand_efficiency>
-0.202866539350695

> <r_i_glide_ligand_efficiency_sa>
-0.710722239587536

> <r_i_glide_ligand_efficiency_ln>
-1.83215596490617

> <r_i_glide_gscore>
-8.72326119207988

> <r_i_glide_lipo>
-3.58394072865086

> <r_i_glide_hbond>
-0.162951955734484

> <r_i_glide_metal>
0

> <r_i_glide_rewards>
-0.474159420794705

> <r_i_glide_evdw>
-67.8686981201172

> <r_i_glide_ecoul>
-13.1923685073853

> <r_i_glide_erotb>
0.90440076615864

> <r_i_glide_esite>
-0.034319670944829

> <r_i_glide_emodel>
-116.823569048828

> <r_i_glide_energy>
-81.0610666275024

> <r_i_glide_einternal>
13.2379417419434

> <i_i_glide_confnum>
11

> <i_i_glide_posenum>
19

> <r_i_glide_eff_state_penalty>
0

> <s_user_duplicate_titles>
CHEMBL1952_lig107,641728

> <i_f3d_flags>
0

> <s_m_subgroup_title>
dock_pv

> <s_m_subgroupid>
dock_pv

> <b_m_subgroup_collapsed>
1

$$$$
CHEMBL1952_lig176
                    3D
 Schrodinger Suite 2021-1.
 33 35  0  0  1  0            999 V2000
   15.1805   13.0885   36.4413 C   0  0  0  0  0  0
   14.4658   14.2170   36.0465 C   0  0  0  0  0  0
   15.0417   15.1355   35.1709 C   0  0  0  0  0  0
   16.3356   14.9341   34.6767 C   0  0  0  0  0  0
   17.0561   13.7978   35.0844 C   0  0  0  0  0  0
   16.4745   12.8843   35.9659 C   0  0  0  0  0  0
   17.0749   16.1343   33.5909 S   0  0  0  0  0  0
   15.8923   16.3146   32.2891 C   0  0  0  0  0  0
   14.7150   16.0676   29.9905 S   0  0  0  0  0  0
   16.0378   15.6585   31.0616 C   0  0  0  0  0  0
   14.1035   17.2431   31.1047 C   0  0  0  0  0  0
   14.8456   17.2586   32.2858 C   0  0  0  0  0  0
   14.4845   18.2472   33.3002 C   0  0  0  0  0  0
   13.4501   19.0279   32.8844 N   0  0  0  0  0  0
   12.7796   18.9885   31.6936 C   0  0  0  0  0  0
   13.0643   18.0882   30.8124 N   0  0  0  0  0  0
   17.1794   14.7686   30.6081 C   0  0  0  0  0  0
   11.7921   19.9672   31.5010 N   0  0  0  0  0  0
   14.9920   18.4618   34.3911 O   0  0  0  0  0  0
   16.9394   13.2880   30.8970 C   0  0  0  0  0  0
   18.6667   13.4860   34.5304 Cl  0  0  0  0  0  0
   14.7383   12.3778   37.1234 H   0  0  0  0  0  0
   13.4656   14.3833   36.4208 H   0  0  0  0  0  0
   14.4737   16.0057   34.8898 H   0  0  0  0  0  0
   17.0312   12.0159   36.2834 H   0  0  0  0  0  0
   13.1990   19.7441   33.5588 H   0  0  0  0  0  0
   17.3868   14.9158   29.5506 H   0  0  0  0  0  0
   18.1011   15.0608   31.1133 H   0  0  0  0  0  0
   11.1084   19.8268   30.7645 H   0  0  0  0  0  0
   11.3869   20.4233   32.3028 H   0  0  0  0  0  0
   17.8534   12.7065   30.7916 H   0  0  0  0  0  0
   16.5923   13.1415   31.9187 H   0  0  0  0  0  0
   16.1920   12.8741   30.2186 H   0  0  0  0  0  0
  1  6  1  0  0  0
  1  2  2  0  0  0
  1 22  1  0  0  0
  2  3  1  0  0  0
  2 23  1  0  0  0
  3  4  2  0  0  0
  3 24  1  0  0  0
  4  7  1  0  0  0
  4  5  1  0  0  0
  5  6  2  0  0  0
  5 21  1  0  0  0
  6 25  1  0  0  0
  7  8  1  0  0  0
  8 10  2  0  0  0
  8 12  1  0  0  0
  9 10  1  0  0  0
  9 11  1  0  0  0
 10 17  1  0  0  0
 11 12  2  0  0  0
 11 16  1  0  0  0
 12 13  1  0  0  0
 13 14  1  0  0  0
 13 19  2  0  0  0
 14 15  1  0  0  0
 14 26  1  0  0  0
 15 16  2  0  0  0
 15 18  1  0  0  0
 17 20  1  0  0  0
 17 27  1  0  0  0
 17 28  1  0  0  0
 18 29  1  0  0  0
 18 30  1  0  0  0
 20 31  1  0  0  0
 20 32  1  0  0  0
 20 33  1  0  0  0
M  END
> <s_m_entry_id>
40942

> <s_m_entry_name>
dock_pv.59

> <s_m_Source_Path>
/home/csk/Desktop/cluster/DUD-E-result/tysy

> <s_m_Source_File>
dock_pv.maegz

> <i_m_Source_File_Index>
59

> <chembl_id>
CHEMBL551768

> <chembl_pref_name>
None

> <i_lp_mmshare_version>
53161

> <r_lp_tautomer_probability>
1

> <s_lp_Force_Field>
OPLS_2005

> <r_lp_Energy>
12.944782

> <b_lp_Chiralities_Consistent>
1

> <s_lp_Variant>
CHEMBL1952_lig176-1

> <s_i_glide_gridfile>
glide-grid_1syn

> <i_i_glide_lignum>
353

> <i_i_glide_rotatable_bonds>
3

> <r_i_docking_score>
-8.70795142273768

> <r_i_glide_ligand_efficiency>
-0.414664353463699

> <r_i_glide_ligand_efficiency_sa>
-1.14402750869344

> <r_i_glide_ligand_efficiency_ln>
-2.15302339319922

> <r_i_glide_gscore>
-8.70795142273768

> <r_i_glide_lipo>
-3.94563133560235

> <r_i_glide_hbond>
-0.448633988948602

> <r_i_glide_metal>
0

> <r_i_glide_rewards>
-1.62429210351912

> <r_i_glide_evdw>
-42.537784576416

> <r_i_glide_ecoul>
-5.85353899002075

> <r_i_glide_erotb>
0.331244321871711

> <r_i_glide_esite>
-0.0157182392154109

> <r_i_glide_emodel>
-74.4362442458036

> <r_i_glide_energy>
-48.3913235664368

> <r_i_glide_einternal>
0.763213038444519

> <i_i_glide_confnum>
2

> <i_i_glide_posenum>
66

> <r_i_glide_eff_state_penalty>
0

> <s_user_duplicate_titles>
CHEMBL1952_lig176

> <i_f3d_flags>
0

> <s_m_subgroup_title>
dock_pv

> <s_m_subgroupid>
dock_pv

> <b_m_subgroup_collapsed>
1

$$$$
CHEMBL1952_lig155
                    3D
 Schrodinger Suite 2021-1.
 30 32  0  0  1  0            999 V2000
   13.4793   19.0281   32.9391 N   0  0  0  0  0  0
   12.7748   19.0056   31.7660 C   0  0  0  0  0  0
   13.0150   18.1034   30.8765 N   0  0  0  0  0  0
   14.5117   18.2280   33.3158 C   0  0  0  0  0  0
   14.8047   17.2136   32.3038 C   0  0  0  0  0  0
   14.0258   17.2199   31.1463 C   0  0  0  0  0  0
   14.5112   15.9828   30.0433 S   0  0  0  0  0  0
   15.7942   15.4557   31.1098 C   0  0  0  0  0  0
   15.7931   16.2052   32.2953 C   0  0  0  0  0  0
   16.7356   14.3472   30.6913 C   0  0  0  0  0  0
   17.0255   15.9823   33.5543 S   0  0  0  0  0  0
   11.7921   19.9907   31.5909 N   0  0  0  0  0  0
   15.0486   18.4292   34.3911 O   0  0  0  0  0  0
   16.2680   14.8432   34.6763 C   0  0  0  0  0  0
   16.9944   13.7225   35.0807 C   0  0  0  0  0  0
   16.4164   12.7987   35.9479 C   0  0  0  0  0  0
   15.1200   13.0076   36.4152 C   0  0  0  0  0  0
   14.4048   14.1424   36.0374 C   0  0  0  0  0  0
   14.9817   15.0653   35.1718 C   0  0  0  0  0  0
   14.3910   11.8521   37.4694 Cl  0  0  0  0  0  0
   13.2503   19.7291   33.6415 H   0  0  0  0  0  0
   17.7770   14.6650   30.7485 H   0  0  0  0  0  0
   16.6364   13.4740   31.3359 H   0  0  0  0  0  0
   16.5647   14.0083   29.6688 H   0  0  0  0  0  0
   11.0939   19.8456   30.8682 H   0  0  0  0  0  0
   11.4007   20.4306   32.4084 H   0  0  0  0  0  0
   17.9961   13.5583   34.7092 H   0  0  0  0  0  0
   16.9733   11.9249   36.2541 H   0  0  0  0  0  0
   13.4046   14.3066   36.4097 H   0  0  0  0  0  0
   14.4208   15.9398   34.8882 H   0  0  0  0  0  0
  1  4  1  0  0  0
  1  2  1  0  0  0
  1 21  1  0  0  0
  2 12  1  0  0  0
  2  3  2  0  0  0
  3  6  1  0  0  0
  4 13  2  0  0  0
  4  5  1  0  0  0
  5  6  2  0  0  0
  5  9  1  0  0  0
  6  7  1  0  0  0
  7  8  1  0  0  0
  8 10  1  0  0  0
  8  9  2  0  0  0
  9 11  1  0  0  0
 10 22  1  0  0  0
 10 23  1  0  0  0
 10 24  1  0  0  0
 11 14  1  0  0  0
 12 25  1  0  0  0
 12 26  1  0  0  0
 14 15  2  0  0  0
 14 19  1  0  0  0
 15 16  1  0  0  0
 15 27  1  0  0  0
 16 17  2  0  0  0
 16 28  1  0  0  0
 17 18  1  0  0  0
 17 20  1  0  0  0
 18 19  2  0  0  0
 18 29  1  0  0  0
 19 30  1  0  0  0
M  END
> <s_m_entry_id>
40943

> <s_m_entry_name>
dock_pv.60

> <s_m_Source_Path>
/home/csk/Desktop/cluster/DUD-E-result/tysy

> <s_m_Source_File>
dock_pv.maegz

> <i_m_Source_File_Index>
60

> <chembl_id>
CHEMBL522517

> <chembl_pref_name>
None

> <i_lp_mmshare_version>
53161

> <r_lp_tautomer_probability>
1

> <s_lp_Force_Field>
OPLS_2005

> <r_lp_Energy>
15.12708

> <b_lp_Chiralities_Consistent>
1

> <s_lp_Variant>
CHEMBL1952_lig155-1

> <s_i_glide_gridfile>
glide-grid_1syn

> <i_i_glide_lignum>
332

> <i_i_glide_rotatable_bonds>
2

> <r_i_docking_score>
-8.70362394019719

> <r_i_glide_ligand_efficiency>
-0.43518119700986

> <r_i_glide_ligand_efficiency_sa>
-1.18126350639484

> <r_i_glide_ligand_efficiency_ln>
-2.17823000750142

> <r_i_glide_gscore>
-8.70362394019719

> <r_i_glide_lipo>
-3.76909542233138

> <r_i_glide_hbond>
-0.456

> <r_i_glide_metal>
0

> <r_i_glide_rewards>
-1.68944765193533

> <r_i_glide_evdw>
-42.3488616943359

> <r_i_glide_ecoul>
-6.74170351028442

> <r_i_glide_erotb>
0.357029890399623

> <r_i_glide_esite>
-0.0174121450706483

> <r_i_glide_emodel>
-75.5971079093355

> <r_i_glide_energy>
-49.0905652046204

> <r_i_glide_einternal>
0.347582459449768

> <i_i_glide_confnum>
1

> <i_i_glide_posenum>
104

> <r_i_glide_eff_state_penalty>
0

> <s_user_duplicate_titles>
CHEMBL1952_lig155,469457

> <i_f3d_flags>
0

> <s_m_subgroup_title>
dock_pv

> <s_m_subgroupid>
dock_pv

> <b_m_subgroup_collapsed>
1

$$$$
CHEMBL1952_lig424
                    3D
 Schrodinger Suite 2021-1.
 36 38  0  0  1  0            999 V2000
   14.9102   17.1592   32.1402 C   0  0  0  0  0  0
   14.5475   18.1346   33.2543 C   0  0  0  0  0  0
   13.5841   19.0156   32.9103 N   0  0  0  0  0  0
   15.9418   16.1908   32.2284 C   0  0  0  0  0  0
   13.1483   18.2334   30.7936 N   0  0  0  0  0  0
   14.1440   17.2591   30.9674 C   0  0  0  0  0  0
   12.9302   19.0883   31.7210 C   0  0  0  0  0  0
   17.0973   16.1470   33.5910 S   0  0  0  0  0  0
   16.1526   15.3208   31.1360 C   0  0  0  0  0  0
   14.9921   18.1847   34.3911 O   0  0  0  0  0  0
   16.5412   14.8106   34.5982 C   0  0  0  0  0  0
   14.3690   16.3987   29.9008 C   0  0  0  0  0  0
   15.6838   12.6912   36.2146 N   0  0  0  0  0  0
   17.3550   13.6881   34.7743 C   0  0  0  0  0  0
   15.3589   15.4266   29.9896 C   0  0  0  0  0  0
   16.8852   12.6468   35.5803 C   0  0  0  0  0  0
   14.9203   13.8025   36.0498 C   0  0  0  0  0  0
   15.3079   14.8787   35.2500 C   0  0  0  0  0  0
   11.9321   20.2038   31.5446 C   0  0  0  0  0  0
   17.2468   14.2576   31.1455 C   0  0  0  0  0  0
   17.6946   11.3774   35.7608 C   0  0  0  0  0  0
   13.3477   19.6694   33.6534 H   0  0  0  0  0  0
   13.7854   16.4997   28.9992 H   0  0  0  0  0  0
   18.3141   13.6181   34.2805 H   0  0  0  0  0  0
   15.5218   14.7656   29.1496 H   0  0  0  0  0  0
   13.9748   13.8182   36.5711 H   0  0  0  0  0  0
   14.6691   15.7421   35.1469 H   0  0  0  0  0  0
   11.7315   20.3885   30.4888 H   0  0  0  0  0  0
   10.9922   19.9569   32.0336 H   0  0  0  0  0  0
   12.3023   21.1366   31.9710 H   0  0  0  0  0  0
   17.2833   13.6884   30.2176 H   0  0  0  0  0  0
   18.2262   14.7133   31.2971 H   0  0  0  0  0  0
   17.0824   13.5493   31.9564 H   0  0  0  0  0  0
   18.7574   11.6063   35.8475 H   0  0  0  0  0  0
   17.5579   10.7219   34.9009 H   0  0  0  0  0  0
   17.3945   10.8323   36.6567 H   0  0  0  0  0  0
  1  2  1  0  0  0
  1  4  1  0  0  0
  1  6  2  0  0  0
  2 10  2  0  0  0
  2  3  1  0  0  0
  3  7  1  0  0  0
  3 22  1  0  0  0
  4  8  1  0  0  0
  4  9  2  0  0  0
  5  6  1  0  0  0
  5  7  2  0  0  0
  6 12  1  0  0  0
  7 19  1  0  0  0
  8 11  1  0  0  0
  9 20  1  0  0  0
  9 15  1  0  0  0
 11 14  2  0  0  0
 11 18  1  0  0  0
 12 15  2  0  0  0
 12 23  1  0  0  0
 13 17  1  0  0  0
 13 16  2  0  0  0
 14 16  1  0  0  0
 14 24  1  0  0  0
 15 25  1  0  0  0
 16 21  1  0  0  0
 17 18  2  0  0  0
 17 26  1  0  0  0
 18 27  1  0  0  0
 19 28  1  0  0  0
 19 29  1  0  0  0
 19 30  1  0  0  0
 20 31  1  0  0  0
 20 32  1  0  0  0
 20 33  1  0  0  0
 21 34  1  0  0  0
 21 35  1  0  0  0
 21 36  1  0  0  0
M  END
> <s_m_entry_id>
40944

> <s_m_entry_name>
dock_pv.61

> <s_m_Source_Path>
/home/csk/Desktop/cluster/DUD-E-result/tysy

> <s_m_Source_File>
dock_pv.maegz

> <i_m_Source_File_Index>
61

> <chembl_id>
CHEMBL350130

> <chembl_pref_name>
None

> <i_lp_mmshare_version>
53161

> <r_lp_tautomer_probability>
0.883938

> <s_lp_Force_Field>
OPLS_2005

> <r_lp_Energy>
22.111413

> <b_lp_Chiralities_Consistent>
1

> <s_lp_Variant>
CHEMBL1952_lig424-1

> <s_i_glide_gridfile>
glide-grid_1syn

> <i_i_glide_lignum>
822

> <i_i_glide_rotatable_bonds>
2

> <r_i_docking_score>
-8.69459787469934

> <r_i_glide_ligand_efficiency>
-0.414028470223778

> <r_i_glide_ligand_efficiency_sa>
-1.14227315505125

> <r_i_glide_ligand_efficiency_ln>
-2.14972175543013

> <r_i_glide_gscore>
-8.69459787469934

> <r_i_glide_lipo>
-4.30745171276127

> <r_i_glide_hbond>
-0.16

> <r_i_glide_metal>
0

> <r_i_glide_rewards>
-1.90156329135016

> <r_i_glide_evdw>
-43.864917755127

> <r_i_glide_ecoul>
-3.56773519515991

> <r_i_glide_erotb>
0.414657038292167

> <r_i_glide_esite>
-0.011833741849741

> <r_i_glide_emodel>
-72.5249777679529

> <r_i_glide_energy>
-47.4326529502869

> <r_i_glide_einternal>
1.04905772209167

> <i_i_glide_confnum>
1

> <i_i_glide_posenum>
380

> <r_i_glide_eff_state_penalty>
0

> <s_user_duplicate_titles>
CHEMBL1952_lig424,273807

> <i_f3d_flags>
0

> <s_m_subgroup_title>
dock_pv

> <s_m_subgroupid>
dock_pv

> <b_m_subgroup_collapsed>
1

$$$$
CHEMBL1952_lig5
                    3D
 Schrodinger Suite 2021-1.
 50 52  0  0  1  0            999 V2000
   13.3550   18.0581   31.2313 C   0  0  0  0  0  0
   13.8930   17.1111   30.5422 N   0  0  0  0  0  0
   14.7621   17.6871   33.2351 C   0  0  0  0  0  0
   14.9929   18.0176   34.3909 O   0  0  0  0  0  0
   15.4117   16.6522   32.4221 C   0  0  0  0  0  0
   14.9087   16.4314   31.1435 C   0  0  0  0  0  0
   16.5908   14.9977   31.4392 C   0  0  0  0  0  0
   16.4992   15.7618   32.6116 C   0  0  0  0  0  0
   17.6097   15.6679   33.9861 S   0  0  0  0  0  0
   17.5173   13.8749   31.0406 C   0  0  0  0  0  0
   17.0473   14.1995   34.7811 C   0  0  0  0  0  0
   15.9128   14.2322   35.5891 C   0  0  0  0  0  0
   15.4536   13.0575   36.1839 C   0  0  0  0  0  0
   16.1317   11.8420   35.9911 C   0  0  0  0  0  0
   17.3035   11.8282   35.2076 C   0  0  0  0  0  0
   17.7562   13.0096   34.6148 C   0  0  0  0  0  0
   15.5511   10.5779   36.5692 C   0  0  0  0  0  0
   16.1861    9.8768   37.3582 O   0  0  0  0  0  0
   13.4640    9.1548   36.5169 C   0  0  1  0  0  0
   11.9756    9.4986   36.1977 C   0  0  0  0  0  0
   14.0069    7.7963   35.9862 C   0  0  0  0  0  0
   15.1824    7.5007   35.9675 O   0  0  0  0  0  0
   11.6456    9.8360   34.7231 C   0  0  0  0  0  0
   10.1709   10.1833   34.5241 C   0  0  0  0  0  0
    9.5915   11.0582   35.1625 O   0  0  0  0  0  0
   18.2042   10.3756   34.9104 Cl  0  0  0  0  0  0
   13.7726   18.3174   32.5234 N   0  0  0  0  0  0
   12.3319   18.8514   30.6781 N   0  0  0  0  0  0
   15.6221   15.4282   30.5648 N   0  0  0  0  0  0
   14.3039   10.3049   36.1502 N   0  0  0  0  0  0
   13.0079    6.9572   35.5909 O   0  0  0  0  0  0
    9.5779    9.4282   33.5548 O   0  0  0  0  0  0
   18.5686   14.1333   31.1932 H   0  0  0  0  0  0
   17.3284   12.9693   31.6211 H   0  0  0  0  0  0
   17.3919   13.6048   29.9911 H   0  0  0  0  0  0
   15.3798   15.1611   35.7389 H   0  0  0  0  0  0
   14.5598   13.1015   36.7897 H   0  0  0  0  0  0
   18.6475   12.9912   34.0008 H   0  0  0  0  0  0
   13.5370    9.0595   37.6014 H   0  0  0  0  0  0
   11.6904   10.3521   36.8162 H   0  0  0  0  0  0
   11.3214    8.6978   36.5468 H   0  0  0  0  0  0
   11.9440    9.0281   34.0577 H   0  0  0  0  0  0
   12.1921   10.7151   34.3961 H   0  0  0  0  0  0
   13.3299   19.0735   33.0243 H   0  0  0  0  0  0
   11.9202   18.5646   29.8026 H   0  0  0  0  0  0
   11.6516   19.2846   31.2835 H   0  0  0  0  0  0
   15.4579   15.0623   29.6387 H   0  0  0  0  0  0
   13.8904   10.9502   35.4962 H   0  0  0  0  0  0
   12.1439    7.3666   35.5019 H   0  0  0  0  0  0
   10.1682    8.7773   33.1617 H   0  0  0  0  0  0
  1  2  2  0  0  0
  1 28  1  0  0  0
  1 27  1  0  0  0
  2  6  1  0  0  0
  3  5  1  0  0  0
  3  4  2  0  0  0
  3 27  1  0  0  0
  5  6  2  0  0  0
  5  8  1  0  0  0
  6 29  1  0  0  0
  7  8  2  0  0  0
  7 10  1  0  0  0
  7 29  1  0  0  0
  8  9  1  0  0  0
  9 11  1  0  0  0
 10 33  1  0  0  0
 10 34  1  0  0  0
 10 35  1  0  0  0
 11 12  2  0  0  0
 11 16  1  0  0  0
 12 13  1  0  0  0
 12 36  1  0  0  0
 13 14  2  0  0  0
 13 37  1  0  0  0
 14 15  1  0  0  0
 14 17  1  0  0  0
 15 16  2  0  0  0
 15 26  1  0  0  0
 16 38  1  0  0  0
 17 18  2  0  0  0
 17 30  1  0  0  0
 19 20  1  0  0  0
 19 21  1  0  0  0
 19 30  1  0  0  0
 19 39  1  0  0  0
 20 23  1  0  0  0
 20 40  1  0  0  0
 20 41  1  0  0  0
 21 22  2  0  0  0
 21 31  1  0  0  0
 23 24  1  0  0  0
 23 42  1  0  0  0
 23 43  1  0  0  0
 24 25  2  0  0  0
 24 32  1  0  0  0
 27 44  1  0  0  0
 28 45  1  0  0  0
 28 46  1  0  0  0
 29 47  1  0  0  0
 30 48  1  0  0  0
 31 49  1  0  0  0
 32 50  1  0  0  0
M  END
> <s_m_entry_id>
40945

> <s_m_entry_name>
dock_pv.62

> <s_m_Source_Path>
/home/csk/Desktop/cluster/DUD-E-result/tysy

> <s_m_Source_File>
dock_pv.maegz

> <i_m_Source_File_Index>
62

> <chembl_id>
CHEMBL224868

> <chembl_pref_name>
None

> <i_lp_mmshare_version>
53161

> <r_lp_tautomer_probability>
1

> <s_lp_Force_Field>
OPLS_2005

> <r_lp_Energy>
18.477351

> <b_lp_Chiralities_Consistent>
1

> <s_lp_Variant>
CHEMBL1952_lig5-1

> <s_i_glide_gridfile>
glide-grid_1syn

> <i_i_glide_lignum>
6

> <i_i_glide_rotatable_bonds>
11

> <r_i_docking_score>
-8.67923620765893

> <r_i_glide_ligand_efficiency>
-0.271226131489341

> <r_i_glide_ligand_efficiency_sa>
-0.861089291900123

> <r_i_glide_ligand_efficiency_ln>
-1.9435175739384

> <r_i_glide_gscore>
-8.67923620765893

> <r_i_glide_lipo>
-2.98046992945559

> <r_i_glide_hbond>
-0.291948919820548

> <r_i_glide_metal>
0

> <r_i_glide_rewards>
-1.32682925882714

> <r_i_glide_evdw>
-55.8644065856934

> <r_i_glide_ecoul>
-13.7626323699951

> <r_i_glide_erotb>
0.792343140104186

> <r_i_glide_esite>
-0.0147160548759034

> <r_i_glide_emodel>
-104.521427289965

> <r_i_glide_energy>
-69.6270389556885

> <r_i_glide_einternal>
4.73551082611084

> <i_i_glide_confnum>
176

> <i_i_glide_posenum>
265

> <r_i_glide_eff_state_penalty>
0

> <s_user_duplicate_titles>
CHEMBL1952_lig5,374001

> <i_f3d_flags>
0

> <s_m_subgroup_title>
dock_pv

> <s_m_subgroupid>
dock_pv

> <b_m_subgroup_collapsed>
1

$$$$
CHEMBL1952_lig387
                    3D
 Schrodinger Suite 2021-1.
 49 53  0  0  1  0            999 V2000
   13.7923   13.9696   37.4596 N   0  0  0  0  0  0
   13.1233   12.9646   38.1049 C   0  0  0  0  0  0
   17.8194   13.4306   34.6363 N   0  0  0  0  0  0
   16.8004   12.9728   35.4859 C   0  0  0  0  0  0
   14.8492   13.3901   36.8024 C   0  0  0  0  0  0
   13.6553   11.7856   37.9378 N   0  0  0  0  0  0
   15.8635   13.8889   35.9912 C   0  0  0  0  0  0
   14.7345   12.0213   37.1256 C   0  0  0  0  0  0
   16.7103   11.5924   35.8081 C   0  0  0  0  0  0
   15.6736   11.1205   36.6226 C   0  0  0  0  0  0
   18.0828   14.8192   34.2356 C   0  0  0  0  0  0
   15.3554   16.7963   32.4258 C   0  0  0  0  0  0
   15.3981   16.2224   31.1198 C   0  0  0  0  0  0
   17.1360   15.2927   33.1411 C   0  0  0  0  0  0
   16.2335   16.3169   33.4161 C   0  0  0  0  0  0
   14.5290   16.7269   30.1224 C   0  0  0  0  0  0
   12.0043   13.2133   38.8300 N   0  0  0  0  0  0
   16.3192   15.1747   30.8605 C   0  0  0  0  0  0
   14.4418   17.8387   32.7025 C   0  0  0  0  0  0
   18.8847   12.5391   34.1569 C   0  0  0  0  0  0
   13.6454   17.7662   30.4205 C   0  0  0  0  0  0
   17.1752   14.7262   31.8654 C   0  0  0  0  0  0
   13.6003   18.3082   31.7037 C   0  0  0  0  0  0
   17.7457   10.5988   35.2973 C   0  0  0  0  0  0
   11.3913   17.8280   29.5911 O   0  0  0  0  0  0
   19.0762   11.3016   35.0423 C   0  0  0  0  0  0
   12.6981   18.2973   29.3666 C   0  0  0  0  0  0
   13.5167   14.9373   37.4919 H   0  0  0  0  0  0
   15.9174   14.9417   35.7729 H   0  0  0  0  0  0
   15.5984   10.0714   36.8640 H   0  0  0  0  0  0
   19.0982   14.9612   33.8620 H   0  0  0  0  0  0
   18.0257   15.4588   35.1158 H   0  0  0  0  0  0
   16.1918   16.7689   34.3910 H   0  0  0  0  0  0
   14.5564   16.2970   29.1310 H   0  0  0  0  0  0
   11.4704   12.4393   39.1944 H   0  0  0  0  0  0
   11.5439   14.1098   38.7993 H   0  0  0  0  0  0
   16.3619   14.7301   29.8762 H   0  0  0  0  0  0
   14.4023   18.2762   33.6901 H   0  0  0  0  0  0
   18.4267   12.0748   33.2816 H   0  0  0  0  0  0
   19.7922   13.0183   33.7918 H   0  0  0  0  0  0
   17.8780   13.9331   31.6495 H   0  0  0  0  0  0
   12.9070   19.1064   31.9285 H   0  0  0  0  0  0
   17.3921   10.1083   34.3913 H   0  0  0  0  0  0
   17.9055    9.8278   36.0443 H   0  0  0  0  0  0
   10.7743   18.5737   29.5659 H   0  0  0  0  0  0
   19.7950   10.6192   34.5890 H   0  0  0  0  0  0
   19.5174   11.6016   35.9909 H   0  0  0  0  0  0
   12.6992   19.3883   29.3881 H   0  0  0  0  0  0
   13.0174   18.0056   28.3649 H   0  0  0  0  0  0
  1  2  1  0  0  0
  1  5  1  0  0  0
  1 28  1  0  0  0
  2  6  2  0  0  0
  2 17  1  0  0  0
  3  4  1  0  0  0
  3 11  1  0  0  0
  3 20  1  0  0  0
  4  7  2  0  0  0
  4  9  1  0  0  0
  5  7  1  0  0  0
  5  8  2  0  0  0
  6  8  1  0  0  0
  7 29  1  0  0  0
  8 10  1  0  0  0
  9 10  2  0  0  0
  9 24  1  0  0  0
 10 30  1  0  0  0
 11 14  1  0  0  0
 11 31  1  0  0  0
 11 32  1  0  0  0
 12 15  2  0  0  0
 12 19  1  0  0  0
 12 13  1  0  0  0
 13 18  2  0  0  0
 13 16  1  0  0  0
 14 15  1  0  0  0
 14 22  2  0  0  0
 15 33  1  0  0  0
 16 21  2  0  0  0
 16 34  1  0  0  0
 17 35  1  0  0  0
 17 36  1  0  0  0
 18 22  1  0  0  0
 18 37  1  0  0  0
 19 23  2  0  0  0
 19 38  1  0  0  0
 20 26  1  0  0  0
 20 39  1  0  0  0
 20 40  1  0  0  0
 21 27  1  0  0  0
 21 23  1  0  0  0
 22 41  1  0  0  0
 23 42  1  0  0  0
 24 26  1  0  0  0
 24 43  1  0  0  0
 24 44  1  0  0  0
 25 27  1  0  0  0
 25 45  1  0  0  0
 26 46  1  0  0  0
 26 47  1  0  0  0
 27 48  1  0  0  0
 27 49  1  0  0  0
M  END
> <s_m_entry_id>
40946

> <s_m_entry_name>
dock_pv.63

> <s_m_Source_Path>
/home/csk/Desktop/cluster/DUD-E-result/tysy

> <s_m_Source_File>
dock_pv.maegz

> <i_m_Source_File_Index>
63

> <chembl_id>
CHEMBL353813

> <chembl_pref_name>
None

> <i_lp_mmshare_version>
53161

> <r_lp_tautomer_probability>
1

> <s_lp_Force_Field>
OPLS_2005

> <r_lp_Energy>
16.491841

> <b_lp_Chiralities_Consistent>
1

> <s_lp_Variant>
CHEMBL1952_lig387-1

> <s_i_glide_gridfile>
glide-grid_1syn

> <i_i_glide_lignum>
768

> <i_i_glide_rotatable_bonds>
4

> <r_i_docking_score>
-8.67611540901388

> <r_i_glide_ligand_efficiency>
-0.321337607741255

> <r_i_glide_ligand_efficiency_sa>
-0.964012822164688

> <r_i_glide_ligand_efficiency_ln>
-2.01965663027697

> <r_i_glide_gscore>
-8.67611540901388

> <r_i_glide_lipo>
-4.44146412230071

> <r_i_glide_hbond>
-0.32

> <r_i_glide_metal>
0

> <r_i_glide_rewards>
-1.36810329648468

> <r_i_glide_evdw>
-45.7892913818359

> <r_i_glide_ecoul>
-4.69587230682373

> <r_i_glide_erotb>
0.447297424886861

> <r_i_glide_esite>
0

> <r_i_glide_emodel>
-76.7242921195597

> <r_i_glide_energy>
-50.4851636886597

> <r_i_glide_einternal>
0.526939570903778

> <i_i_glide_confnum>
26

> <i_i_glide_posenum>
276

> <r_i_glide_eff_state_penalty>
0

> <s_user_duplicate_titles>
CHEMBL1952_lig387,282801

> <i_f3d_flags>
0

> <s_m_subgroup_title>
dock_pv

> <s_m_subgroupid>
dock_pv

> <b_m_subgroup_collapsed>
1

$$$$
CHEMBL1952_lig439
                    3D
 Schrodinger Suite 2021-1.
 61 65  0  0  1  0            999 V2000
   13.0189   10.0455   36.3256 S   0  0  0  0  0  0
   13.3161   18.0089   31.7012 N   0  0  0  0  0  0
   13.5540   17.6481   30.4994 C   0  0  0  0  0  0
   14.1831   17.2786   32.4994 C   0  0  0  0  0  0
   14.9691   16.4466   31.7464 C   0  0  0  0  0  0
   14.5990   16.6089   30.4288 C   0  0  0  0  0  0
   15.9573   15.5668   32.2470 C   0  0  0  0  0  0
   12.8917    9.5111   38.0153 N   0  0  0  0  0  0
   16.1630   15.6143   33.6828 C   0  0  0  0  0  0
   17.2333   14.9383   34.3227 N   0  0  0  0  0  0
   14.2625   11.3425   36.2960 C   0  0  0  0  0  0
   14.3313   17.2682   33.8761 C   0  0  0  0  0  0
   15.2374   15.8116   29.4814 C   0  0  0  0  0  0
   15.3012   16.4382   34.4456 C   0  0  0  0  0  0
   11.7487   10.6876   35.9661 O   0  0  0  0  0  0
   13.5553    8.9257   35.5399 O   0  0  0  0  0  0
   12.8948   18.1602   29.4002 N   0  0  0  0  0  0
   16.5822   14.7371   31.2406 C   0  0  0  0  0  0
   17.1500   14.4945   35.7226 C   0  0  0  0  0  0
   16.1993   14.8828   29.8944 C   0  0  0  0  0  0
   14.1911   10.2270   40.4133 O   0  0  0  0  0  0
   15.5779   11.0345   35.9422 C   0  0  0  0  0  0
   13.8959   12.6673   36.5485 C   0  0  0  0  0  0
   12.2247   10.3945   39.0046 C   0  0  0  0  0  0
   13.9638    8.6587   38.5831 C   0  0  0  0  0  0
   16.1253   13.3898   35.9562 C   0  0  0  0  0  0
   16.5046   12.0586   35.7662 C   0  0  0  0  0  0
   14.8308   13.6887   36.3889 C   0  0  0  0  0  0
   18.5181   15.5652   34.0079 C   0  0  0  0  0  0
   14.9356    9.5024   39.4289 C   0  0  0  0  0  0
   13.2635   11.1585   39.8513 C   0  0  0  0  0  0
   13.5437   18.3672   28.1154 C   0  0  0  0  0  0
   17.5679   13.6274   31.5927 C   0  0  0  0  0  0
   13.7208   17.9021   34.5020 H   0  0  0  0  0  0
   14.9807   15.8640   28.4349 H   0  0  0  0  0  0
   15.3922   16.4936   35.5180 H   0  0  0  0  0  0
   12.1418   18.8071   29.5943 H   0  0  0  0  0  0
   18.1254   14.0992   36.0009 H   0  0  0  0  0  0
   16.9563   15.3318   36.3921 H   0  0  0  0  0  0
   16.6282   14.2353   29.1488 H   0  0  0  0  0  0
   15.8650   10.0142   35.7313 H   0  0  0  0  0  0
   12.8816   12.9132   36.8291 H   0  0  0  0  0  0
   11.5650   11.0870   38.4808 H   0  0  0  0  0  0
   11.5983    9.7658   39.6385 H   0  0  0  0  0  0
   13.4888    7.8949   39.2002 H   0  0  0  0  0  0
   14.4867    8.1466   37.7746 H   0  0  0  0  0  0
   17.5096   11.8200   35.4487 H   0  0  0  0  0  0
   14.5379   14.7123   36.5747 H   0  0  0  0  0  0
   18.5928   15.8264   32.9529 H   0  0  0  0  0  0
   18.6621   16.4829   34.5799 H   0  0  0  0  0  0
   19.3438   14.8844   34.2230 H   0  0  0  0  0  0
   15.6677    8.8656   39.9265 H   0  0  0  0  0  0
   15.4889   10.1980   38.7974 H   0  0  0  0  0  0
   12.7740   11.7025   40.6577 H   0  0  0  0  0  0
   13.8007   11.8949   39.2525 H   0  0  0  0  0  0
   12.9242   19.0069   27.4866 H   0  0  0  0  0  0
   13.6954   17.4277   27.5880 H   0  0  0  0  0  0
   14.5071   18.8603   28.2450 H   0  0  0  0  0  0
   17.6123   12.8718   30.8094 H   0  0  0  0  0  0
   18.5793   14.0124   31.7200 H   0  0  0  0  0  0
   17.2730   13.0970   32.4964 H   0  0  0  0  0  0
  1  8  1  0  0  0
  1 11  1  0  0  0
  1 15  2  0  0  0
  1 16  2  0  0  0
  2  4  1  0  0  0
  2  3  2  0  0  0
  3  6  1  0  0  0
  3 17  1  0  0  0
  4 12  2  0  0  0
  4  5  1  0  0  0
  5  7  2  0  0  0
  5  6  1  0  0  0
  6 13  2  0  0  0
  7  9  1  0  0  0
  7 18  1  0  0  0
  8 24  1  0  0  0
  8 25  1  0  0  0
  9 10  1  0  0  0
  9 14  2  0  0  0
 10 19  1  0  0  0
 10 29  1  0  0  0
 11 22  1  0  0  0
 11 23  2  0  0  0
 12 14  1  0  0  0
 12 34  1  0  0  0
 13 20  1  0  0  0
 13 35  1  0  0  0
 14 36  1  0  0  0
 17 32  1  0  0  0
 17 37  1  0  0  0
 18 20  2  0  0  0
 18 33  1  0  0  0
 19 26  1  0  0  0
 19 38  1  0  0  0
 19 39  1  0  0  0
 20 40  1  0  0  0
 21 30  1  0  0  0
 21 31  1  0  0  0
 22 27  2  0  0  0
 22 41  1  0  0  0
 23 28  1  0  0  0
 23 42  1  0  0  0
 24 31  1  0  0  0
 24 43  1  0  0  0
 24 44  1  0  0  0
 25 30  1  0  0  0
 25 45  1  0  0  0
 25 46  1  0  0  0
 26 28  2  0  0  0
 26 27  1  0  0  0
 27 47  1  0  0  0
 28 48  1  0  0  0
 29 49  1  0  0  0
 29 50  1  0  0  0
 29 51  1  0  0  0
 30 52  1  0  0  0
 30 53  1  0  0  0
 31 54  1  0  0  0
 31 55  1  0  0  0
 32 56  1  0  0  0
 32 57  1  0  0  0
 32 58  1  0  0  0
 33 59  1  0  0  0
 33 60  1  0  0  0
 33 61  1  0  0  0
M  END
> <s_m_entry_id>
40947

> <s_m_entry_name>
dock_pv.64

> <s_m_Source_Path>
/home/csk/Desktop/cluster/DUD-E-result/tysy

> <s_m_Source_File>
dock_pv.maegz

> <i_m_Source_File_Index>
64

> <chembl_id>
CHEMBL9671

> <chembl_pref_name>
None

> <i_lp_mmshare_version>
53161

> <r_lp_tautomer_probability>
1

> <s_lp_Force_Field>
OPLS_2005

> <r_lp_Energy>
50.528524

> <b_lp_Chiralities_Consistent>
1

> <s_lp_Variant>
CHEMBL1952_lig439-1

> <s_i_glide_gridfile>
glide-grid_1syn

> <i_i_glide_lignum>
869

> <i_i_glide_rotatable_bonds>
6

> <r_i_docking_score>
-8.67165805543374

> <r_i_glide_ligand_efficiency>
-0.262777516831325

> <r_i_glide_ligand_efficiency_sa>
-0.842867905405168

> <r_i_glide_ligand_efficiency_ln>
-1.92853185208602

> <r_i_glide_gscore>
-8.67165805543374

> <r_i_glide_lipo>
-5.05140570557823

> <r_i_glide_hbond>
0

> <r_i_glide_metal>
0

> <r_i_glide_rewards>
-1.06332962790834

> <r_i_glide_evdw>
-54.0972099304199

> <r_i_glide_ecoul>
-2.12730956077576

> <r_i_glide_erotb>
0.467034208690195

> <r_i_glide_esite>
0

> <r_i_glide_emodel>
-76.6891434027622

> <r_i_glide_energy>
-56.2245194911957

> <r_i_glide_einternal>
9.52498435974121

> <i_i_glide_confnum>
2

> <i_i_glide_posenum>
64

> <r_i_glide_eff_state_penalty>
0

> <s_user_duplicate_titles>
CHEMBL1952_lig439,5802

> <i_f3d_flags>
0

> <s_m_subgroup_title>
dock_pv

> <s_m_subgroupid>
dock_pv

> <b_m_subgroup_collapsed>
1

$$$$
CHEMBL1952_lig26
                    3D
 Schrodinger Suite 2021-1.
 27 29  0  0  1  0            999 V2000
   14.6963   17.1158   32.2613 C   0  0  0  0  0  0
   14.4535   18.1252   33.3009 C   0  0  0  0  0  0
   13.8830   17.1705   31.1617 C   0  0  0  0  0  0
   13.5057   19.0279   32.9962 N   0  0  0  0  0  0
   12.9220   18.1278   30.9835 N   0  0  0  0  0  0
   15.7960   16.0995   32.3356 C   0  0  0  0  0  0
   12.7573   19.0347   31.8694 C   0  0  0  0  0  0
   16.1886   15.4267   31.1577 C   0  0  0  0  0  0
   14.9964   18.2282   34.3908 O   0  0  0  0  0  0
   16.4234   15.7453   33.5460 C   0  0  0  0  0  0
   14.0582   16.1901   30.0063 C   0  0  0  0  0  0
   11.7984   20.0463   31.7218 N   0  0  0  0  0  0
   15.5421   15.8014   29.8281 C   0  0  0  0  0  0
   17.1805   14.4414   31.2184 C   0  0  0  0  0  0
   17.4247   14.7776   33.5884 C   0  0  0  0  0  0
   17.8036   14.1229   32.4214 C   0  0  0  0  0  0
   18.0191   14.4709   34.7636 F   0  0  0  0  0  0
   13.3494   19.7175   33.7260 H   0  0  0  0  0  0
   16.1399   16.1931   34.4827 H   0  0  0  0  0  0
   13.6729   16.6127   29.0770 H   0  0  0  0  0  0
   13.4545   15.3086   30.2215 H   0  0  0  0  0  0
   11.1022   19.9910   30.9842 H   0  0  0  0  0  0
   11.5656   20.6631   32.4841 H   0  0  0  0  0  0
   15.6369   14.9929   29.0998 H   0  0  0  0  0  0
   16.0881   16.6498   29.4178 H   0  0  0  0  0  0
   17.4847   13.9192   30.3241 H   0  0  0  0  0  0
   18.5792   13.3700   32.4475 H   0  0  0  0  0  0
  1  2  1  0  0  0
  1  6  1  0  0  0
  1  3  2  0  0  0
  2  4  1  0  0  0
  2  9  2  0  0  0
  3  5  1  0  0  0
  3 11  1  0  0  0
  4  7  1  0  0  0
  4 18  1  0  0  0
  5  7  2  0  0  0
  6  8  2  0  0  0
  6 10  1  0  0  0
  7 12  1  0  0  0
  8 13  1  0  0  0
  8 14  1  0  0  0
 10 15  2  0  0  0
 10 19  1  0  0  0
 11 13  1  0  0  0
 11 20  1  0  0  0
 11 21  1  0  0  0
 12 22  1  0  0  0
 12 23  1  0  0  0
 13 24  1  0  0  0
 13 25  1  0  0  0
 14 16  2  0  0  0
 14 26  1  0  0  0
 15 16  1  0  0  0
 15 17  1  0  0  0
 16 27  1  0  0  0
M  END
> <s_m_entry_id>
40948

> <s_m_entry_name>
dock_pv.65

> <s_m_Source_Path>
/home/csk/Desktop/cluster/DUD-E-result/tysy

> <s_m_Source_File>
dock_pv.maegz

> <i_m_Source_File_Index>
65

> <chembl_id>
CHEMBL307278

> <chembl_pref_name>
None

> <i_lp_mmshare_version>
53161

> <r_lp_tautomer_probability>
0.878315377147829

> <s_lp_Force_Field>
OPLS_2005

> <r_lp_Energy>
19.758478

> <b_lp_Chiralities_Consistent>
1

> <s_lp_Variant>
CHEMBL1952_lig26-1

> <s_i_glide_gridfile>
glide-grid_1syn

> <i_i_glide_lignum>
30

> <i_i_glide_rotatable_bonds>
0

> <r_i_docking_score>
-8.66596624403767

> <r_i_glide_ligand_efficiency>
-0.50976272023751

> <r_i_glide_ligand_efficiency_sa>
-1.3107434969127

> <r_i_glide_ligand_efficiency_ln>
-2.26075761148936

> <r_i_glide_gscore>
-8.66596624403767

> <r_i_glide_lipo>
-2.78010179923966

> <r_i_glide_hbond>
-0.456

> <r_i_glide_metal>
0

> <r_i_glide_rewards>
-2.6938693823999

> <r_i_glide_evdw>
-35.1954460144043

> <r_i_glide_ecoul>
-6.37828683853149

> <r_i_glide_erotb>
0

> <r_i_glide_esite>
-0.0194797358981757

> <r_i_glide_emodel>
-65.1289037549209

> <r_i_glide_energy>
-41.5737328529358

> <r_i_glide_einternal>
0

> <i_i_glide_confnum>
1

> <i_i_glide_posenum>
306

> <r_i_glide_eff_state_penalty>
0

> <s_user_duplicate_titles>
CHEMBL1952_lig26,CHEMBL1952_lig26,CHEMBL1952_lig26

> <i_f3d_flags>
0

> <s_m_subgroup_title>
dock_pv

> <s_m_subgroupid>
dock_pv

> <b_m_subgroup_collapsed>
1

$$$$
CHEMBL1952_lig373
                    3D
 Schrodinger Suite 2021-1.
 41 44  0  0  1  0            999 V2000
   13.7608   16.6658   29.3147 N   0  0  0  0  0  0
   13.2230   17.5738   30.0402 C   0  0  0  0  0  0
   14.7510   16.0900   30.1046 C   0  0  0  0  0  0
   14.7813   16.6760   31.3415 C   0  0  0  0  0  0
   15.6716   16.3443   32.3828 C   0  0  0  0  0  0
   15.3337   10.4277   36.6572 C   0  0  0  0  0  0
   16.6138   15.2825   32.1085 C   0  0  0  0  0  0
   13.8233   17.6632   31.3731 C   0  0  0  0  0  0
   17.5877   14.8195   33.0324 N   0  0  0  0  0  0
   16.4744   11.1862   35.9835 C   0  0  0  0  0  0
   16.5802   14.6943   30.8186 C   0  0  0  0  0  0
   17.6093   10.4684   35.7687 N   0  0  0  0  0  0
   15.6660   15.0820   29.8269 C   0  0  0  0  0  0
   17.2873   14.6060   34.4609 C   0  0  0  0  0  0
   16.3526   12.5264   35.5900 C   0  0  0  0  0  0
   17.4279   13.1518   34.9433 C   0  0  0  0  0  0
   12.1928   18.3991   29.6612 N   0  0  0  0  0  0
   14.3411   11.2384   37.0325 F   0  0  0  0  0  0
   14.8367    9.5195   35.8126 F   0  0  0  0  0  0
   15.7810    9.7937   37.7455 F   0  0  0  0  0  0
   15.5332   17.1545   33.5499 C   0  0  0  0  0  0
   18.6635   11.0920   35.1909 C   0  0  0  0  0  0
   13.7045   18.4260   32.5340 C   0  0  0  0  0  0
   18.9212   14.5204   32.5067 C   0  0  0  0  0  0
   14.5647   18.1722   33.6119 C   0  0  0  0  0  0
   18.6171   12.4261   34.7897 C   0  0  0  0  0  0
   17.2611   13.8920   30.5708 H   0  0  0  0  0  0
   15.6784   14.5956   28.8642 H   0  0  0  0  0  0
   16.2696   14.9148   34.6793 H   0  0  0  0  0  0
   17.9480   15.2453   35.0481 H   0  0  0  0  0  0
   15.4305   13.0651   35.7544 H   0  0  0  0  0  0
   11.8156   18.3344   28.7276 H   0  0  0  0  0  0
   11.7417   19.0272   30.3150 H   0  0  0  0  0  0
   16.1913   17.0062   34.3860 H   0  0  0  0  0  0
   19.5615   10.5078   35.0535 H   0  0  0  0  0  0
   12.9800   19.2247   32.6100 H   0  0  0  0  0  0
   19.1260   15.0282   31.5636 H   0  0  0  0  0  0
   19.6992   14.8151   33.2122 H   0  0  0  0  0  0
   19.0131   13.4530   32.3089 H   0  0  0  0  0  0
   14.4785   18.7755   34.5036 H   0  0  0  0  0  0
   19.5054   12.8646   34.3619 H   0  0  0  0  0  0
  1  2  2  0  0  0
  1  3  1  0  0  0
  2  8  1  0  0  0
  2 17  1  0  0  0
  3  4  1  0  0  0
  3 13  2  0  0  0
  4  5  1  0  0  0
  4  8  2  0  0  0
  5 21  2  0  0  0
  5  7  1  0  0  0
  6 10  1  0  0  0
  6 18  1  0  0  0
  6 19  1  0  0  0
  6 20  1  0  0  0
  7 11  2  0  0  0
  7  9  1  0  0  0
  8 23  1  0  0  0
  9 14  1  0  0  0
  9 24  1  0  0  0
 10 15  1  0  0  0
 10 12  2  0  0  0
 11 13  1  0  0  0
 11 27  1  0  0  0
 12 22  1  0  0  0
 13 28  1  0  0  0
 14 16  1  0  0  0
 14 29  1  0  0  0
 14 30  1  0  0  0
 15 16  2  0  0  0
 15 31  1  0  0  0
 16 26  1  0  0  0
 17 32  1  0  0  0
 17 33  1  0  0  0
 21 25  1  0  0  0
 21 34  1  0  0  0
 22 26  2  0  0  0
 22 35  1  0  0  0
 23 25  2  0  0  0
 23 36  1  0  0  0
 24 37  1  0  0  0
 24 38  1  0  0  0
 24 39  1  0  0  0
 25 40  1  0  0  0
 26 41  1  0  0  0
M  END
> <s_m_entry_id>
40949

> <s_m_entry_name>
dock_pv.66

> <s_m_Source_Path>
/home/csk/Desktop/cluster/DUD-E-result/tysy

> <s_m_Source_File>
dock_pv.maegz

> <i_m_Source_File_Index>
66

> <chembl_id>
CHEMBL301218

> <chembl_pref_name>
None

> <i_lp_mmshare_version>
53161

> <r_lp_tautomer_probability>
1

> <s_lp_Force_Field>
OPLS_2005

> <r_lp_Energy>
51.833909

> <b_lp_Chiralities_Consistent>
1

> <s_lp_Variant>
CHEMBL1952_lig373-1

> <s_i_glide_gridfile>
glide-grid_1syn

> <i_i_glide_lignum>
745

> <i_i_glide_rotatable_bonds>
4

> <r_i_docking_score>
-8.66111895817401

> <r_i_glide_ligand_efficiency>
-0.333119959929769

> <r_i_glide_ligand_efficiency_sa>
-0.986866570528194

> <r_i_glide_ligand_efficiency_ln>
-2.03403536787787

> <r_i_glide_gscore>
-8.66111895817401

> <r_i_glide_lipo>
-3.77518189159032

> <r_i_glide_hbond>
-0.0261506408771298

> <r_i_glide_metal>
0

> <r_i_glide_rewards>
-2.07523659265773

> <r_i_glide_evdw>
-47.321346282959

> <r_i_glide_ecoul>
-5.28140783309937

> <r_i_glide_erotb>
0.451985659546871

> <r_i_glide_esite>
-0.0782570034828447

> <r_i_glide_emodel>
-79.8052061139828

> <r_i_glide_energy>
-52.6027541160583

> <r_i_glide_einternal>
3.17807412147522

> <i_i_glide_confnum>
3

> <i_i_glide_posenum>
399

> <r_i_glide_eff_state_penalty>
0

> <s_user_duplicate_titles>
CHEMBL1952_lig373,87486

> <i_f3d_flags>
0

> <s_m_subgroup_title>
dock_pv

> <s_m_subgroupid>
dock_pv

> <b_m_subgroup_collapsed>
1

$$$$
CHEMBL1952_lig72
                    3D
 Schrodinger Suite 2021-1.
 27 29  0  0  1  0            999 V2000
   14.7237   17.1576   32.0543 C   0  0  0  0  0  0
   14.6063   18.2049   33.0732 C   0  0  0  0  0  0
   13.8415   17.2184   31.0118 C   0  0  0  0  0  0
   13.5552   19.0279   32.9106 N   0  0  0  0  0  0
   12.8783   18.1833   30.9004 N   0  0  0  0  0  0
   15.7914   16.1074   32.0789 C   0  0  0  0  0  0
   12.7483   19.0569   31.8275 C   0  0  0  0  0  0
   16.1107   15.4275   30.8841 C   0  0  0  0  0  0
   15.3888   18.4166   33.9911 O   0  0  0  0  0  0
   16.4447   15.7273   33.2632 C   0  0  0  0  0  0
   13.9353   16.2267   29.8555 C   0  0  0  0  0  0
   11.7920   20.0752   31.7512 N   0  0  0  0  0  0
   15.4054   15.8271   29.5917 C   0  0  0  0  0  0
   17.0781   14.4180   30.9013 C   0  0  0  0  0  0
   17.4149   14.7288   33.2621 C   0  0  0  0  0  0
   17.7402   14.0779   32.0773 C   0  0  0  0  0  0
   18.1920   14.2882   34.7364 Cl  0  0  0  0  0  0
   13.4349   19.7155   33.6474 H   0  0  0  0  0  0
   16.1983   16.1834   34.2087 H   0  0  0  0  0  0
   13.4958   16.6489   28.9511 H   0  0  0  0  0  0
   13.3399   15.3500   30.1123 H   0  0  0  0  0  0
   11.0765   20.0513   31.0333 H   0  0  0  0  0  0
   11.6001   20.6772   32.5372 H   0  0  0  0  0  0
   15.4534   15.0270   28.8508 H   0  0  0  0  0  0
   15.9388   16.6782   29.1661 H   0  0  0  0  0  0
   17.3289   13.8941   29.9910 H   0  0  0  0  0  0
   18.4949   13.3037   32.0676 H   0  0  0  0  0  0
  1  2  1  0  0  0
  1  6  1  0  0  0
  1  3  2  0  0  0
  2  4  1  0  0  0
  2  9  2  0  0  0
  3  5  1  0  0  0
  3 11  1  0  0  0
  4  7  1  0  0  0
  4 18  1  0  0  0
  5  7  2  0  0  0
  6  8  2  0  0  0
  6 10  1  0  0  0
  7 12  1  0  0  0
  8 13  1  0  0  0
  8 14  1  0  0  0
 10 15  2  0  0  0
 10 19  1  0  0  0
 11 13  1  0  0  0
 11 20  1  0  0  0
 11 21  1  0  0  0
 12 22  1  0  0  0
 12 23  1  0  0  0
 13 24  1  0  0  0
 13 25  1  0  0  0
 14 16  2  0  0  0
 14 26  1  0  0  0
 15 16  1  0  0  0
 15 17  1  0  0  0
 16 27  1  0  0  0
M  END
> <s_m_entry_id>
40951

> <s_m_entry_name>
dock_pv.68

> <s_m_Source_Path>
/home/csk/Desktop/cluster/DUD-E-result/tysy

> <s_m_Source_File>
dock_pv.maegz

> <i_m_Source_File_Index>
68

> <chembl_id>
CHEMBL76322

> <chembl_pref_name>
None

> <i_lp_mmshare_version>
53161

> <r_lp_tautomer_probability>
0.878315377147829

> <s_lp_Force_Field>
OPLS_2005

> <r_lp_Energy>
18.905988

> <b_lp_Chiralities_Consistent>
1

> <s_lp_Variant>
CHEMBL1952_lig72-1

> <s_i_glide_gridfile>
glide-grid_1syn

> <i_i_glide_lignum>
107

> <i_i_glide_rotatable_bonds>
0

> <r_i_docking_score>
-8.62913629163211

> <r_i_glide_ligand_efficiency>
-0.507596252448948

> <r_i_glide_ligand_efficiency_sa>
-1.30517289817648

> <r_i_glide_ligand_efficiency_ln>
-2.25114949706947

> <r_i_glide_gscore>
-8.62913629163211

> <r_i_glide_lipo>
-3.07898705591969

> <r_i_glide_hbond>
-0.456

> <r_i_glide_metal>
0

> <r_i_glide_rewards>
-2.27147102716382

> <r_i_glide_evdw>
-37.4577598571777

> <r_i_glide_ecoul>
-6.23832988739014

> <r_i_glide_erotb>
0

> <r_i_glide_esite>
-0.0140407325812036

> <r_i_glide_emodel>
-68.1475346828567

> <r_i_glide_energy>
-43.6960897445679

> <r_i_glide_einternal>
0

> <i_i_glide_confnum>
1

> <i_i_glide_posenum>
251

> <r_i_glide_eff_state_penalty>
0

> <s_user_duplicate_titles>
CHEMBL1952_lig72,CHEMBL1952_lig72,CHEMBL1952_lig72

> <i_f3d_flags>
0

> <s_m_subgroup_title>
dock_pv

> <s_m_subgroupid>
dock_pv

> <b_m_subgroup_collapsed>
1

$$$$
CHEMBL1952_lig313 
                    3D
 Schrodinger Suite 2021-1.
 50 53  0  0  1  0            999 V2000
   13.5902   18.2363   31.5341 N   0  0  0  0  0  0
   13.2404   17.7868   30.2745 C   0  0  0  0  0  0
   13.8667   16.7985   29.7290 N   0  0  0  0  0  0
   14.5854   17.7730   32.3558 C   0  0  0  0  0  0
   15.2718   16.6333   31.7427 C   0  0  0  0  0  0
   14.8721   16.2406   30.4645 C   0  0  0  0  0  0
   15.6803   15.2188   30.0568 N   0  0  0  0  0  0
   16.5753   14.9527   31.0687 C   0  0  0  0  0  0
   16.3325   15.7957   32.1580 C   0  0  0  0  0  0
   14.8247   18.3194   33.4317 O   0  0  0  0  0  0
   12.1949   18.4472   29.5983 N   0  0  0  0  0  0
   17.0863   15.8171   33.4767 C   0  0  0  0  0  0
   16.3981   14.9921   34.5613 C   0  0  0  0  0  0
   15.1551   15.3864   35.0567 C   0  0  0  0  0  0
   14.4896   14.6051   35.9907 C   0  0  0  0  0  0
   15.0560   13.4164   36.4647 C   0  0  0  0  0  0
   16.3236   13.0399   35.9907 C   0  0  0  0  0  0
   16.9912   13.8254   35.0482 C   0  0  0  0  0  0
   14.2999   12.5981   37.4893 C   0  0  0  0  0  0
   13.4598   13.1447   38.2078 O   0  0  0  0  0  0
   14.5929   11.2765   37.5240 N   0  0  0  0  0  0
   14.1109   10.2682   38.3926 C   0  0  0  0  0  0
   13.4554   10.5547   39.6063 C   0  0  0  0  0  0
   12.9979    9.5307   40.4322 C   0  0  0  0  0  0
   13.1934    8.2019   40.0686 C   0  0  0  0  0  0
   13.8547    7.8984   38.8852 C   0  0  0  0  0  0
   14.3219    8.9163   38.0430 C   0  0  0  0  0  0
   15.0276    8.4931   36.7483 C   0  0  0  0  0  0
   14.1198    8.3160   35.5219 C   0  0  0  0  0  0
   12.7904    8.2271   35.8022 O   0  0  0  0  0  0
   14.5886    8.2283   34.3934 O   0  0  0  0  0  0
   13.1019   19.0389   31.9015 H   0  0  0  0  0  0
   15.6232   14.7500   29.1653 H   0  0  0  0  0  0
   17.3082   14.1655   30.9391 H   0  0  0  0  0  0
   11.8447   18.0490   28.7421 H   0  0  0  0  0  0
   11.4799   18.9384   30.1149 H   0  0  0  0  0  0
   17.1881   16.8408   33.8352 H   0  0  0  0  0  0
   18.1100   15.4624   33.3336 H   0  0  0  0  0  0
   14.6813   16.2908   34.7146 H   0  0  0  0  0  0
   13.5203   14.9313   36.3368 H   0  0  0  0  0  0
   16.8148   12.1464   36.3501 H   0  0  0  0  0  0
   17.9588   13.5105   34.6826 H   0  0  0  0  0  0
   15.2186   10.9583   36.8018 H   0  0  0  0  0  0
   13.2946   11.5661   39.9400 H   0  0  0  0  0  0
   12.4935    9.7664   41.3574 H   0  0  0  0  0  0
   12.8345    7.4072   40.7052 H   0  0  0  0  0  0
   13.9952    6.8622   38.6139 H   0  0  0  0  0  0
   15.8317    9.1870   36.5040 H   0  0  0  0  0  0
   15.5214    7.5371   36.9125 H   0  0  0  0  0  0
   12.2644    8.0477   35.0154 H   0  0  0  0  0  0
  1  2  1  0  0  0
  1  4  1  0  0  0
  1 32  1  0  0  0
  2  3  2  0  0  0
  2 11  1  0  0  0
  3  6  1  0  0  0
  4  5  1  0  0  0
  4 10  2  0  0  0
  5  6  2  0  0  0
  5  9  1  0  0  0
  6  7  1  0  0  0
  7  8  1  0  0  0
  7 33  1  0  0  0
  8  9  2  0  0  0
  8 34  1  0  0  0
  9 12  1  0  0  0
 11 35  1  0  0  0
 11 36  1  0  0  0
 12 13  1  0  0  0
 12 37  1  0  0  0
 12 38  1  0  0  0
 13 14  2  0  0  0
 13 18  1  0  0  0
 14 15  1  0  0  0
 14 39  1  0  0  0
 15 16  2  0  0  0
 15 40  1  0  0  0
 16 17  1  0  0  0
 16 19  1  0  0  0
 17 18  2  0  0  0
 17 41  1  0  0  0
 18 42  1  0  0  0
 19 20  2  0  0  0
 19 21  1  0  0  0
 21 22  1  0  0  0
 21 43  1  0  0  0
 22 23  2  0  0  0
 22 27  1  0  0  0
 23 24  1  0  0  0
 23 44  1  0  0  0
 24 25  2  0  0  0
 24 45  1  0  0  0
 25 26  1  0  0  0
 25 46  1  0  0  0
 26 27  2  0  0  0
 26 47  1  0  0  0
 27 28  1  0  0  0
 28 29  1  0  0  0
 28 48  1  0  0  0
 28 49  1  0  0  0
 29 30  1  0  0  0
 29 31  2  0  0  0
 30 50  1  0  0  0
M  END
> <s_m_entry_id>
40952

> <s_m_entry_name>
dock_pv.69

> <s_m_Source_Path>
/home/csk/Desktop/cluster/DUD-E-result/tysy

> <s_m_Source_File>
dock_pv.maegz

> <i_m_Source_File_Index>
69

> <chembl_id>
CHEMBL4447254

> <chembl_pref_name>
None

> <i_lp_mmshare_version>
53161

> <r_lp_tautomer_probability>
1

> <s_lp_Force_Field>
OPLS_2005

> <r_lp_Energy>
29.867907

> <b_lp_Chiralities_Consistent>
1

> <s_lp_Variant>
CHEMBL1952_lig313 -1

> <s_i_glide_gridfile>
glide-grid_1syn

> <i_i_glide_lignum>
584

> <i_i_glide_rotatable_bonds>
8

> <r_i_docking_score>
-8.6072355628459

> <r_i_glide_ligand_efficiency>
-0.277652760091803

> <r_i_glide_ligand_efficiency_sa>
-0.87221300763707

> <r_i_glide_ligand_efficiency_ln>
-1.94119539951296

> <r_i_glide_gscore>
-8.6072355628459

> <r_i_glide_lipo>
-3.09194674086617

> <r_i_glide_hbond>
-0.633283044679842

> <r_i_glide_metal>
0

> <r_i_glide_rewards>
-1.67276526611176

> <r_i_glide_evdw>
-51.989330291748

> <r_i_glide_ecoul>
-9.1493501663208

> <r_i_glide_erotb>
0.794058724171146

> <r_i_glide_esite>
-0.0314301958237466

> <r_i_glide_emodel>
-91.5958359600408

> <r_i_glide_energy>
-61.1386804580688

> <r_i_glide_einternal>
3.62032389640808

> <i_i_glide_confnum>
52

> <i_i_glide_posenum>
354

> <r_i_glide_eff_state_penalty>
0

> <s_user_duplicate_titles>
CHEMBL1952_lig313 

> <i_f3d_flags>
0

> <s_m_subgroup_title>
dock_pv

> <s_m_subgroupid>
dock_pv

> <b_m_subgroup_collapsed>
1

$$$$
CHEMBL1952_lig428
                    3D
 Schrodinger Suite 2021-1.
 59 63  0  0  1  0            999 V2000
   13.1464   18.7806   32.2352 C   0  0  0  0  0  0
   13.9337   18.3993   33.2031 N   0  0  0  0  0  0
   14.1808   11.0163   37.6270 S   0  0  0  0  0  0
   13.3471   18.1022   31.0469 N   0  0  0  0  0  0
   14.6914   17.4079   32.6548 C   0  0  0  0  0  0
   14.3524   17.1874   31.3028 C   0  0  0  0  0  0
   17.3920   14.9249   33.1007 N   0  0  0  0  0  0
   16.3554   15.6676   32.5109 C   0  0  0  0  0  0
   15.6947   16.6505   33.2595 C   0  0  0  0  0  0
   14.9982   16.2186   30.5338 C   0  0  0  0  0  0
   16.0040   15.4562   31.1486 C   0  0  0  0  0  0
   15.2435   12.1291   36.7143 C   0  0  0  0  0  0
   12.7217   10.8878   36.5999 C   0  0  0  0  0  0
   14.8319    9.6995   37.6661 O   0  0  0  0  0  0
   13.7860   11.7002   38.8653 O   0  0  0  0  0  0
   17.7556   14.8430   34.5183 C   0  0  0  0  0  0
   12.2165   19.7620   32.3894 N   0  0  0  0  0  0
   16.3408   11.6371   36.0036 C   0  0  0  0  0  0
   12.6249    9.8677   35.6541 C   0  0  0  0  0  0
   11.7106   11.8437   36.7107 C   0  0  0  0  0  0
   14.9540   13.4942   36.7111 C   0  0  0  0  0  0
   16.8660   13.8834   35.2914 C   0  0  0  0  0  0
   12.6125   18.2541   29.7940 C   0  0  0  0  0  0
   18.0776   13.8621   32.3598 C   0  0  0  0  0  0
   10.5285   10.8019   34.8741 C   0  0  0  0  0  0
   17.1573   12.5170   35.2995 C   0  0  0  0  0  0
   15.7627   14.3696   35.9943 C   0  0  0  0  0  0
   11.5350    9.8284   34.7917 C   0  0  0  0  0  0
   10.6174   11.7955   35.8501 C   0  0  0  0  0  0
   16.7106   14.3841   30.3243 C   0  0  0  0  0  0
    9.4323   10.8618   34.0368 O   0  0  0  0  0  0
   18.1192   14.1595   30.8692 C   0  0  0  0  0  0
    9.3457    9.9577   32.9391 C   0  0  0  0  0  0
   15.9428   16.8406   34.2887 H   0  0  0  0  0  0
   14.7325   16.0560   29.4994 H   0  0  0  0  0  0
   18.7969   14.5407   34.6406 H   0  0  0  0  0  0
   17.7246   15.8204   34.9707 H   0  0  0  0  0  0
   12.1938   20.2797   33.2664 H   0  0  0  0  0  0
   11.5347   19.9867   31.6802 H   0  0  0  0  0  0
   16.5675   10.5813   36.0025 H   0  0  0  0  0  0
   13.4039    9.1241   35.5647 H   0  0  0  0  0  0
   11.7797   12.6365   37.4424 H   0  0  0  0  0  0
   14.1070   13.8771   37.2611 H   0  0  0  0  0  0
   13.3148   18.2858   28.9602 H   0  0  0  0  0  0
   11.9353   17.4094   29.6676 H   0  0  0  0  0  0
   12.0346   19.1787   29.7941 H   0  0  0  0  0  0
   19.0156   13.4992   32.7840 H   0  0  0  0  0  0
   17.3880   13.0180   32.4221 H   0  0  0  0  0  0
   18.0118   12.1382   34.7563 H   0  0  0  0  0  0
   15.5339   15.4253   36.0046 H   0  0  0  0  0  0
   11.4993    9.0424   34.0542 H   0  0  0  0  0  0
    9.8464   12.5485   35.9181 H   0  0  0  0  0  0
   16.1655   13.4437   30.3833 H   0  0  0  0  0  0
   16.7428   14.6544   29.2681 H   0  0  0  0  0  0
   18.7589   15.0223   30.6748 H   0  0  0  0  0  0
   18.5919   13.3044   30.3911 H   0  0  0  0  0  0
    8.4396   10.1677   32.3705 H   0  0  0  0  0  0
   10.1906   10.0721   32.2606 H   0  0  0  0  0  0
    9.2928    8.9203   33.2711 H   0  0  0  0  0  0
  1  2  2  0  0  0
  1  4  1  0  0  0
  1 17  1  0  0  0
  2  5  1  0  0  0
  3 12  1  0  0  0
  3 13  1  0  0  0
  3 14  2  0  0  0
  3 15  2  0  0  0
  4  6  1  0  0  0
  4 23  1  0  0  0
  5  9  2  0  0  0
  5  6  1  0  0  0
  6 10  2  0  0  0
  7  8  1  0  0  0
  7 16  1  0  0  0
  7 24  1  0  0  0
  8  9  1  0  0  0
  8 11  2  0  0  0
  9 34  1  0  0  0
 10 11  1  0  0  0
 10 35  1  0  0  0
 11 30  1  0  0  0
 12 21  1  0  0  0
 12 18  2  0  0  0
 13 19  2  0  0  0
 13 20  1  0  0  0
 16 22  1  0  0  0
 16 36  1  0  0  0
 16 37  1  0  0  0
 17 38  1  0  0  0
 17 39  1  0  0  0
 18 26  1  0  0  0
 18 40  1  0  0  0
 19 28  1  0  0  0
 19 41  1  0  0  0
 20 29  2  0  0  0
 20 42  1  0  0  0
 21 27  2  0  0  0
 21 43  1  0  0  0
 22 26  2  0  0  0
 22 27  1  0  0  0
 23 44  1  0  0  0
 23 45  1  0  0  0
 23 46  1  0  0  0
 24 32  1  0  0  0
 24 47  1  0  0  0
 24 48  1  0  0  0
 25 29  1  0  0  0
 25 31  1  0  0  0
 25 28  2  0  0  0
 26 49  1  0  0  0
 27 50  1  0  0  0
 28 51  1  0  0  0
 29 52  1  0  0  0
 30 32  1  0  0  0
 30 53  1  0  0  0
 30 54  1  0  0  0
 31 33  1  0  0  0
 32 55  1  0  0  0
 32 56  1  0  0  0
 33 57  1  0  0  0
 33 58  1  0  0  0
 33 59  1  0  0  0
M  END
> <s_m_entry_id>
40953

> <s_m_entry_name>
dock_pv.70

> <s_m_Source_Path>
/home/csk/Desktop/cluster/DUD-E-result/tysy

> <s_m_Source_File>
dock_pv.maegz

> <i_m_Source_File_Index>
70

> <chembl_id>
CHEMBL171057

> <chembl_pref_name>
None

> <i_lp_mmshare_version>
53161

> <r_lp_tautomer_probability>
1

> <s_lp_Force_Field>
OPLS_2005

> <r_lp_Energy>
21.298332

> <b_lp_Chiralities_Consistent>
1

> <s_lp_Variant>
CHEMBL1952_lig428-1

> <s_i_glide_gridfile>
glide-grid_1syn

> <i_i_glide_lignum>
828

> <i_i_glide_rotatable_bonds>
5

> <r_i_docking_score>
-8.60185904591861

> <r_i_glide_ligand_efficiency>
-0.260662395330867

> <r_i_glide_ligand_efficiency_sa>
-0.836083580588242

> <r_i_glide_ligand_efficiency_ln>
-1.91300891376978

> <r_i_glide_gscore>
-8.60185904591861

> <r_i_glide_lipo>
-4.11829693326393

> <r_i_glide_hbond>
-0.151680282583526

> <r_i_glide_metal>
0

> <r_i_glide_rewards>
-1.17981807556555

> <r_i_glide_evdw>
-52.9319610595703

> <r_i_glide_ecoul>
-5.88044023513794

> <r_i_glide_erotb>
0.376600333743604

> <r_i_glide_esite>
0

> <r_i_glide_emodel>
-87.9681609277688

> <r_i_glide_energy>
-58.8124012947083

> <r_i_glide_einternal>
1.14574575424194

> <i_i_glide_confnum>
3

> <i_i_glide_posenum>
302

> <r_i_glide_eff_state_penalty>
0

> <s_user_duplicate_titles>
CHEMBL1952_lig428,283187

> <i_f3d_flags>
0

> <s_m_subgroup_title>
dock_pv

> <s_m_subgroupid>
dock_pv

> <b_m_subgroup_collapsed>
1

$$$$
CHEMBL1952_lig192
                    3D
 Schrodinger Suite 2021-1.
 57 59  0  0  1  0            999 V2000
   13.3431   18.0192   31.5759 N   0  0  0  0  0  0
   13.3753   17.2924   30.4171 C   0  0  0  0  0  0
   14.2867   16.4070   30.2111 N   0  0  0  0  0  0
   14.1916   17.9172   32.6227 C   0  0  0  0  0  0
   12.2732   17.5294   29.4083 C   0  0  0  0  0  0
   14.0885   18.6279   33.6114 O   0  0  0  0  0  0
   15.2506   16.8698   32.4096 C   0  0  0  0  0  0
   15.2546   16.1666   31.2016 C   0  0  0  0  0  0
   16.2393   15.2067   30.9736 C   0  0  0  0  0  0
   17.2144   14.9648   31.9474 C   0  0  0  0  0  0
   17.2035   15.6788   33.1582 C   0  0  0  0  0  0
   16.2093   16.6296   33.3878 C   0  0  0  0  0  0
   18.2809   15.4992   34.2241 C   0  0  0  0  0  0
   18.7316   14.1217   34.3901 N   0  0  0  0  0  0
   17.8808   13.1214   34.9378 C   0  0  0  0  0  0
   16.6108   13.4474   35.4421 C   0  0  0  0  0  0
   15.7777   12.4782   35.9917 C   0  0  0  0  0  0
   16.2101   11.1516   36.0764 C   0  0  0  0  0  0
   17.4776   10.8161   35.5911 C   0  0  0  0  0  0
   18.2930   11.7844   35.0153 C   0  0  0  0  0  0
   15.3352   10.0882   36.6835 C   0  0  0  0  0  0
   15.7920    9.2558   37.4680 O   0  0  0  0  0  0
   14.0525   10.0941   36.2858 N   0  0  0  0  0  0
   13.0459    9.0787   36.6284 C   0  0  1  0  0  0
   11.6485    9.5680   36.1663 C   0  0  0  0  0  0
   13.3888    7.6722   36.0754 C   0  0  0  0  0  0
   12.6551    6.7215   36.7157 O   0  0  0  0  0  0
   14.1913    7.4544   35.1912 O   0  0  0  0  0  0
   11.5267    9.8817   34.6582 C   0  0  0  0  0  0
   10.1108   10.3028   34.2728 C   0  0  0  0  0  0
    9.5220    9.4284   33.4068 O   0  0  0  0  0  0
    9.5724   11.3213   34.6983 O   0  0  0  0  0  0
   20.0898   13.8280   33.9381 C   0  0  0  0  0  0
   11.3066   16.6281   29.5910 F   0  0  0  0  0  0
   12.6294   18.7195   31.7046 H   0  0  0  0  0  0
   11.8233   18.5200   29.5075 H   0  0  0  0  0  0
   12.6442   17.4285   28.3908 H   0  0  0  0  0  0
   16.2470   14.6563   30.0462 H   0  0  0  0  0  0
   17.9838   14.2287   31.7595 H   0  0  0  0  0  0
   16.1881   17.1880   34.3120 H   0  0  0  0  0  0
   17.9303   15.8200   35.1977 H   0  0  0  0  0  0
   19.1098   16.1621   33.9711 H   0  0  0  0  0  0
   16.2385   14.4592   35.4185 H   0  0  0  0  0  0
   14.8089   12.7756   36.3684 H   0  0  0  0  0  0
   17.8423    9.8040   35.6410 H   0  0  0  0  0  0
   19.2514   11.4711   34.6303 H   0  0  0  0  0  0
   13.7611   10.8058   35.6343 H   0  0  0  0  0  0
   13.0385    8.9963   37.7178 H   0  0  0  0  0  0
   11.3875   10.4642   36.7331 H   0  0  0  0  0  0
   10.8913    8.8340   36.4477 H   0  0  0  0  0  0
   12.8594    5.8493   36.3708 H   0  0  0  0  0  0
   11.8396    9.0285   34.0596 H   0  0  0  0  0  0
   12.1918   10.6989   34.3906 H   0  0  0  0  0  0
   10.0935    8.6900   33.1781 H   0  0  0  0  0  0
   20.0561   13.4282   32.9247 H   0  0  0  0  0  0
   20.7182   14.7140   33.9109 H   0  0  0  0  0  0
   20.5920   13.1078   34.5847 H   0  0  0  0  0  0
  1  2  1  0  0  0
  1  4  1  0  0  0
  1 35  1  0  0  0
  2  5  1  0  0  0
  2  3  2  0  0  0
  3  8  1  0  0  0
  4  7  1  0  0  0
  4  6  2  0  0  0
  5 34  1  0  0  0
  5 36  1  0  0  0
  5 37  1  0  0  0
  7  8  2  0  0  0
  7 12  1  0  0  0
  8  9  1  0  0  0
  9 10  2  0  0  0
  9 38  1  0  0  0
 10 11  1  0  0  0
 10 39  1  0  0  0
 11 12  2  0  0  0
 11 13  1  0  0  0
 12 40  1  0  0  0
 13 14  1  0  0  0
 13 41  1  0  0  0
 13 42  1  0  0  0
 14 15  1  0  0  0
 14 33  1  0  0  0
 15 20  1  0  0  0
 15 16  2  0  0  0
 16 17  1  0  0  0
 16 43  1  0  0  0
 17 18  2  0  0  0
 17 44  1  0  0  0
 18 19  1  0  0  0
 18 21  1  0  0  0
 19 20  2  0  0  0
 19 45  1  0  0  0
 20 46  1  0  0  0
 21 22  2  0  0  0
 21 23  1  0  0  0
 23 24  1  0  0  0
 23 47  1  0  0  0
 24 25  1  0  0  0
 24 26  1  0  0  0
 24 48  1  0  0  0
 25 29  1  0  0  0
 25 49  1  0  0  0
 25 50  1  0  0  0
 26 27  1  0  0  0
 26 28  2  0  0  0
 27 51  1  0  0  0
 29 30  1  0  0  0
 29 52  1  0  0  0
 29 53  1  0  0  0
 30 31  1  0  0  0
 30 32  2  0  0  0
 31 54  1  0  0  0
 33 55  1  0  0  0
 33 56  1  0  0  0
 33 57  1  0  0  0
M  END
> <s_m_entry_id>
40954

> <s_m_entry_name>
dock_pv.71

> <s_m_Source_Path>
/home/csk/Desktop/cluster/DUD-E-result/tysy

> <s_m_Source_File>
dock_pv.maegz

> <i_m_Source_File_Index>
71

> <chembl_id>
CHEMBL104638

> <chembl_pref_name>
None

> <i_lp_mmshare_version>
53161

> <r_lp_tautomer_probability>
0.883938

> <s_lp_Force_Field>
OPLS_2005

> <r_lp_Energy>
25.4097

> <b_lp_Chiralities_Consistent>
1

> <s_lp_Variant>
CHEMBL1952_lig192-1

> <s_i_glide_gridfile>
glide-grid_1syn

> <i_i_glide_lignum>
381

> <i_i_glide_rotatable_bonds>
13

> <r_i_docking_score>
-8.60084672253412

> <r_i_glide_ligand_efficiency>
-0.252966080074533

> <r_i_glide_ligand_efficiency_sa>
-0.819511897369063

> <r_i_glide_ligand_efficiency_ln>
-1.90016828658682

> <r_i_glide_gscore>
-8.60084672253412

> <r_i_glide_lipo>
-3.48278131260198

> <r_i_glide_hbond>
-0.577310053867306

> <r_i_glide_metal>
0

> <r_i_glide_rewards>
-0.810419116781964

> <r_i_glide_evdw>
-55.1572036743164

> <r_i_glide_ecoul>
-12.370138168335

> <r_i_glide_erotb>
0.912923702520933

> <r_i_glide_esite>
-0.0298790328377337

> <r_i_glide_emodel>
-100.744953282012

> <r_i_glide_energy>
-67.5273418426514

> <r_i_glide_einternal>
5.9434962272644

> <i_i_glide_confnum>
15

> <i_i_glide_posenum>
308

> <r_i_glide_eff_state_penalty>
0

> <s_user_duplicate_titles>
CHEMBL1952_lig192,CHEMBL1952_lig192

> <i_f3d_flags>
0

> <s_m_subgroup_title>
dock_pv

> <s_m_subgroupid>
dock_pv

> <b_m_subgroup_collapsed>
1

$$$$
CHEMBL1952_lig191
                    3D
 Schrodinger Suite 2021-1.
 59 61  0  0  1  0            999 V2000
   13.1964   18.3188   31.8000 N   0  0  0  0  0  0
   13.2740   17.9317   30.4871 C   0  0  0  0  0  0
   14.0998   17.0142   30.1203 N   0  0  0  0  0  0
   13.9481   17.8696   32.8325 C   0  0  0  0  0  0
   12.3346   18.6045   29.4934 C   0  0  0  0  0  0
   13.7509   18.2265   33.9869 O   0  0  0  0  0  0
   14.9925   16.8760   32.3952 C   0  0  0  0  0  0
   14.9899   16.4608   31.0602 C   0  0  0  0  0  0
   15.9084   15.4962   30.6440 C   0  0  0  0  0  0
   16.8435   14.9865   31.5508 C   0  0  0  0  0  0
   16.8558   15.4284   32.8837 C   0  0  0  0  0  0
   15.9143   16.3692   33.3068 C   0  0  0  0  0  0
   17.9269   14.9437   33.8545 C   0  0  0  0  0  0
   17.6742   13.5795   34.3472 N   0  0  0  0  0  0
   16.5920   13.3088   35.2405 C   0  0  0  0  0  0
   16.0979   12.0078   35.4232 C   0  0  0  0  0  0
   15.1533   11.7156   36.3944 C   0  0  0  0  0  0
   14.6379   12.7315   37.2000 C   0  0  0  0  0  0
   15.0173   14.0550   36.9429 C   0  0  0  0  0  0
   15.9944   14.3297   35.9915 C   0  0  0  0  0  0
   13.7891   12.3676   38.3899 C   0  0  0  0  0  0
   13.7993   11.2209   38.8431 O   0  0  0  0  0  0
   13.0677   13.3543   38.9528 N   0  0  0  0  0  0
   12.2230   13.2625   40.1539 C   0  0  1  0  0  0
   11.1453   12.1457   40.0281 C   0  0  0  0  0  0
   13.0136   13.1440   41.4747 C   0  0  0  0  0  0
   13.7902   12.0226   41.4806 O   0  0  0  0  0  0
   12.8914   13.9300   42.3907 O   0  0  0  0  0  0
   10.1549   12.3019   38.8530 C   0  0  0  0  0  0
    9.2735   13.5410   38.9770 C   0  0  0  0  0  0
    8.5924   13.8281   37.8376 O   0  0  0  0  0  0
    9.1901   14.2274   39.9914 O   0  0  0  0  0  0
   18.6006   12.5447   33.8371 C   0  0  0  0  0  0
   18.9922   11.4936   34.7971 C   0  0  0  0  0  0
   12.9928   18.9726   28.3917 F   0  0  0  0  0  0
   19.2935   10.6164   35.5909 C   0  0  0  0  0  0
   12.5232   19.0149   32.0739 H   0  0  0  0  0  0
   11.5364   17.9278   29.1933 H   0  0  0  0  0  0
   11.8737   19.5051   29.9019 H   0  0  0  0  0  0
   15.9079   15.1636   29.6160 H   0  0  0  0  0  0
   17.5667   14.2553   31.2183 H   0  0  0  0  0  0
   15.9093   16.7255   34.3287 H   0  0  0  0  0  0
   18.8787   14.9937   33.3227 H   0  0  0  0  0  0
   18.0480   15.6368   34.6875 H   0  0  0  0  0  0
   16.4482   11.1899   34.8148 H   0  0  0  0  0  0
   14.8615   10.6856   36.5381 H   0  0  0  0  0  0
   14.6413   14.8764   37.5352 H   0  0  0  0  0  0
   16.3249   15.3491   35.9125 H   0  0  0  0  0  0
   13.0913   14.2590   38.5072 H   0  0  0  0  0  0
   11.7243   14.2286   40.2187 H   0  0  0  0  0  0
   11.6021   11.1589   39.9491 H   0  0  0  0  0  0
   10.5847   12.1043   40.9564 H   0  0  0  0  0  0
   13.7801   11.5872   40.6178 H   0  0  0  0  0  0
   10.6919   12.3410   37.9040 H   0  0  0  0  0  0
    9.5043   11.4305   38.8010 H   0  0  0  0  0  0
    8.1308   14.6681   37.9607 H   0  0  0  0  0  0
   18.1924   12.0579   32.9538 H   0  0  0  0  0  0
   19.5402   13.0022   33.5238 H   0  0  0  0  0  0
   19.5469    9.8293   36.2633 H   0  0  0  0  0  0
  1  2  1  0  0  0
  1  4  1  0  0  0
  1 37  1  0  0  0
  2  5  1  0  0  0
  2  3  2  0  0  0
  3  8  1  0  0  0
  4  7  1  0  0  0
  4  6  2  0  0  0
  5 35  1  0  0  0
  5 38  1  0  0  0
  5 39  1  0  0  0
  7 12  1  0  0  0
  7  8  2  0  0  0
  8  9  1  0  0  0
  9 10  2  0  0  0
  9 40  1  0  0  0
 10 11  1  0  0  0
 10 41  1  0  0  0
 11 12  2  0  0  0
 11 13  1  0  0  0
 12 42  1  0  0  0
 13 14  1  0  0  0
 13 43  1  0  0  0
 13 44  1  0  0  0
 14 15  1  0  0  0
 14 33  1  0  0  0
 15 20  1  0  0  0
 15 16  2  0  0  0
 16 17  1  0  0  0
 16 45  1  0  0  0
 17 18  2  0  0  0
 17 46  1  0  0  0
 18 19  1  0  0  0
 18 21  1  0  0  0
 19 20  2  0  0  0
 19 47  1  0  0  0
 20 48  1  0  0  0
 21 22  2  0  0  0
 21 23  1  0  0  0
 23 24  1  0  0  0
 23 49  1  0  0  0
 24 25  1  0  0  0
 24 26  1  0  0  0
 24 50  1  0  0  0
 25 29  1  0  0  0
 25 51  1  0  0  0
 25 52  1  0  0  0
 26 27  1  0  0  0
 26 28  2  0  0  0
 27 53  1  0  0  0
 29 30  1  0  0  0
 29 54  1  0  0  0
 29 55  1  0  0  0
 30 31  1  0  0  0
 30 32  2  0  0  0
 31 56  1  0  0  0
 33 34  1  0  0  0
 33 57  1  0  0  0
 33 58  1  0  0  0
 34 36  3  0  0  0
 36 59  1  0  0  0
M  END
> <s_m_entry_id>
40955

> <s_m_entry_name>
dock_pv.72

> <s_m_Source_Path>
/home/csk/Desktop/cluster/DUD-E-result/tysy

> <s_m_Source_File>
dock_pv.maegz

> <i_m_Source_File_Index>
72

> <chembl_id>
CHEMBL322176

> <chembl_pref_name>
None

> <i_lp_mmshare_version>
53161

> <r_lp_tautomer_probability>
0.883938

> <s_lp_Force_Field>
OPLS_2005

> <r_lp_Energy>
22.700433

> <b_lp_Chiralities_Consistent>
1

> <s_lp_Variant>
CHEMBL1952_lig191-1

> <s_i_glide_gridfile>
glide-grid_1syn

> <i_i_glide_lignum>
379

> <i_i_glide_rotatable_bonds>
15

> <r_i_docking_score>
-8.5966557878507

> <r_i_glide_ligand_efficiency>
-0.238795994106964

> <r_i_glide_ligand_efficiency_sa>
-0.788486998926812

> <r_i_glide_ligand_efficiency_ln>
-1.87555803810998

> <r_i_glide_gscore>
-8.5966557878507

> <r_i_glide_lipo>
-3.45554986063083

> <r_i_glide_hbond>
-0.261471638276431

> <r_i_glide_metal>
0

> <r_i_glide_rewards>
-1.39009194196499

> <r_i_glide_evdw>
-59.3520202636719

> <r_i_glide_ecoul>
-9.76819515228271

> <r_i_glide_erotb>
1.00017194402705

> <r_i_glide_esite>
-0.0568840049794982

> <r_i_glide_emodel>
-103.397820698173

> <r_i_glide_energy>
-69.1202154159546

> <r_i_glide_einternal>
8.51294231414795

> <i_i_glide_confnum>
32

> <i_i_glide_posenum>
165

> <r_i_glide_eff_state_penalty>
0

> <s_user_duplicate_titles>
CHEMBL1952_lig191,170422

> <i_f3d_flags>
0

> <s_m_subgroup_title>
dock_pv

> <s_m_subgroupid>
dock_pv

> <b_m_subgroup_collapsed>
1

$$$$
CHEMBL1952_lig187
                    3D
 Schrodinger Suite 2021-1.
 61 63  0  0  1  0            999 V2000
   13.9635   17.8252   31.2849 N   0  0  0  0  0  0
   14.1649   17.2020   30.0849 C   0  0  0  0  0  0
   15.0046   16.2398   29.9675 N   0  0  0  0  0  0
   14.5920   17.5679   32.4564 C   0  0  0  0  0  0
   13.3821   17.7008   28.8939 C   0  0  0  0  0  0
   14.3602   18.2191   33.4695 O   0  0  0  0  0  0
   15.5951   16.4461   32.3365 C   0  0  0  0  0  0
   15.7476   15.8302   31.0890 C   0  0  0  0  0  0
   16.6808   14.8088   30.9342 C   0  0  0  0  0  0
   17.4745   14.4221   32.0190 C   0  0  0  0  0  0
   17.3207   15.0419   33.2690 C   0  0  0  0  0  0
   16.3679   16.0531   33.4293 C   0  0  0  0  0  0
   18.2103   14.6488   34.4456 C   0  0  0  0  0  0
   17.8941   13.3059   34.9573 N   0  0  0  0  0  0
   16.6308   13.0631   35.5692 C   0  0  0  0  0  0
   16.0554   11.7840   35.5910 C   0  0  0  0  0  0
   14.8144   11.5608   36.1825 C   0  0  0  0  0  0
   14.1185   12.6113   36.7881 C   0  0  0  0  0  0
   14.6834   13.8917   36.7727 C   0  0  0  0  0  0
   15.9182   14.1080   36.1735 C   0  0  0  0  0  0
   12.8091   12.3326   37.4823 C   0  0  0  0  0  0
   12.0868   11.3904   37.1538 O   0  0  0  0  0  0
   12.5394   13.1136   38.5386 N   0  0  0  0  0  0
   11.5001   12.8715   39.5465 C   0  0  1  0  0  0
   12.0321   13.3731   40.9122 C   0  0  0  0  0  0
   10.1061   13.4252   39.1783 C   0  0  0  0  0  0
    9.7320   12.9751   37.9443 O   0  0  0  0  0  0
    9.4403   14.1194   39.9226 O   0  0  0  0  0  0
   13.3843   12.7279   41.2998 C   0  0  0  0  0  0
   13.7780   12.9432   42.7554 C   0  0  0  0  0  0
   14.5900   11.9463   43.1910 O   0  0  0  0  0  0
   13.3887   13.8742   43.4561 O   0  0  0  0  0  0
   18.7335   12.2174   34.4362 C   0  0  0  0  0  0
   19.1874   11.1500   35.4604 C   0  0  0  0  0  0
   20.5881   11.0279   35.5909 O   0  0  0  0  0  0
   13.3117   18.5917   31.3328 H   0  0  0  0  0  0
   12.3105   17.6124   29.0713 H   0  0  0  0  0  0
   13.6048   18.7491   28.6971 H   0  0  0  0  0  0
   13.6236   17.1393   27.9914 H   0  0  0  0  0  0
   16.8049   14.3327   29.9726 H   0  0  0  0  0  0
   18.2144   13.6441   31.8840 H   0  0  0  0  0  0
   16.2334   16.5349   34.3885 H   0  0  0  0  0  0
   18.1671   15.3898   35.2434 H   0  0  0  0  0  0
   19.2432   14.6883   34.0975 H   0  0  0  0  0  0
   16.5483   10.9419   35.1363 H   0  0  0  0  0  0
   14.4080   10.5587   36.1724 H   0  0  0  0  0  0
   14.1913   14.7359   37.2307 H   0  0  0  0  0  0
   16.3182   15.1066   36.2188 H   0  0  0  0  0  0
   13.1524   13.8933   38.7170 H   0  0  0  0  0  0
   11.3611   11.7918   39.6392 H   0  0  0  0  0  0
   11.2874   13.1708   41.6799 H   0  0  0  0  0  0
   12.1532   14.4580   40.8889 H   0  0  0  0  0  0
   10.4091   12.4215   37.5398 H   0  0  0  0  0  0
   14.1922   13.1003   40.6695 H   0  0  0  0  0  0
   13.3280   11.6524   41.1235 H   0  0  0  0  0  0
   14.8182   12.0328   44.1316 H   0  0  0  0  0  0
   18.2348   11.7262   33.6001 H   0  0  0  0  0  0
   19.6123   12.5948   33.9108 H   0  0  0  0  0  0
   18.5661   11.0172   36.3463 H   0  0  0  0  0  0
   18.9701   10.2076   34.9566 H   0  0  0  0  0  0
   20.9911   11.1002   34.7051 H   0  0  0  0  0  0
  1  2  1  0  0  0
  1  4  1  0  0  0
  1 36  1  0  0  0
  2  5  1  0  0  0
  2  3  2  0  0  0
  3  8  1  0  0  0
  4  7  1  0  0  0
  4  6  2  0  0  0
  5 37  1  0  0  0
  5 38  1  0  0  0
  5 39  1  0  0  0
  7 12  1  0  0  0
  7  8  2  0  0  0
  8  9  1  0  0  0
  9 10  2  0  0  0
  9 40  1  0  0  0
 10 11  1  0  0  0
 10 41  1  0  0  0
 11 12  2  0  0  0
 11 13  1  0  0  0
 12 42  1  0  0  0
 13 14  1  0  0  0
 13 43  1  0  0  0
 13 44  1  0  0  0
 14 15  1  0  0  0
 14 33  1  0  0  0
 15 20  1  0  0  0
 15 16  2  0  0  0
 16 17  1  0  0  0
 16 45  1  0  0  0
 17 18  2  0  0  0
 17 46  1  0  0  0
 18 19  1  0  0  0
 18 21  1  0  0  0
 19 20  2  0  0  0
 19 47  1  0  0  0
 20 48  1  0  0  0
 21 22  2  0  0  0
 21 23  1  0  0  0
 23 24  1  0  0  0
 23 49  1  0  0  0
 24 25  1  0  0  0
 24 26  1  0  0  0
 24 50  1  0  0  0
 25 29  1  0  0  0
 25 51  1  0  0  0
 25 52  1  0  0  0
 26 27  1  0  0  0
 26 28  2  0  0  0
 27 53  1  0  0  0
 29 30  1  0  0  0
 29 54  1  0  0  0
 29 55  1  0  0  0
 30 31  1  0  0  0
 30 32  2  0  0  0
 31 56  1  0  0  0
 33 34  1  0  0  0
 33 57  1  0  0  0
 33 58  1  0  0  0
 34 35  1  0  0  0
 34 59  1  0  0  0
 34 60  1  0  0  0
 35 61  1  0  0  0
M  END
> <s_m_entry_id>
40956

> <s_m_entry_name>
dock_pv.73

> <s_m_Source_Path>
/home/csk/Desktop/cluster/DUD-E-result/tysy

> <s_m_Source_File>
dock_pv.maegz

> <i_m_Source_File_Index>
73

> <chembl_id>
CHEMBL104025

> <chembl_pref_name>
None

> <i_lp_mmshare_version>
53161

> <r_lp_tautomer_probability>
0.883938

> <s_lp_Force_Field>
OPLS_2005

> <r_lp_Energy>
22.678972

> <b_lp_Chiralities_Consistent>
1

> <s_lp_Variant>
CHEMBL1952_lig187-1

> <s_i_glide_gridfile>
glide-grid_1syn

> <i_i_glide_lignum>
371

> <i_i_glide_rotatable_bonds>
15

> <r_i_docking_score>
-8.59214019446886

> <r_i_glide_ligand_efficiency>
-0.245489719841968

> <r_i_glide_ligand_efficiency_sa>
-0.803013151121032

> <r_i_glide_ligand_efficiency_ln>
-1.8861654649633

> <r_i_glide_gscore>
-8.59214019446886

> <r_i_glide_lipo>
-3.51571632562068

> <r_i_glide_hbond>
-0.22620940022349

> <r_i_glide_metal>
0

> <r_i_glide_rewards>
-0.895251268767916

> <r_i_glide_evdw>
-59.8048248291016

> <r_i_glide_ecoul>
-13.3909206390381

> <r_i_glide_erotb>
1.04611007778217

> <r_i_glide_esite>
-0.00219394032815639

> <r_i_glide_emodel>
-106.558338808814

> <r_i_glide_energy>
-73.1957454681396

> <r_i_glide_einternal>
11.0980663299561

> <i_i_glide_confnum>
151

> <i_i_glide_posenum>
258

> <r_i_glide_eff_state_penalty>
0

> <s_user_duplicate_titles>
CHEMBL1952_lig187,CHEMBL1952_lig187,170711

> <i_f3d_flags>
0

> <s_m_subgroup_title>
dock_pv

> <s_m_subgroupid>
dock_pv

> <b_m_subgroup_collapsed>
1

$$$$
CHEMBL1952_lig88
                    3D
 Schrodinger Suite 2021-1.
 60 62  0  0  1  0            999 V2000
   14.9680   16.0653   30.5165 C   0  0  0  0  0  0
   15.3030   16.6280   31.7680 C   0  0  0  0  0  0
   13.9639   16.5141   29.7418 N   0  0  0  0  0  0
   16.4068   15.8504   32.2410 C   0  0  0  0  0  0
   15.7829   15.0283   30.2188 N   0  0  0  0  0  0
   16.5984   14.8798   31.2418 C   0  0  0  0  0  0
   13.2597   17.5587   30.2476 C   0  0  0  0  0  0
   14.5428   17.7316   32.2172 C   0  0  0  0  0  0
   13.5337   18.1353   31.4244 N   0  0  0  0  0  0
   15.5833   10.4932   36.7825 C   0  0  0  0  0  0
   14.3633   10.6337   37.3419 N   0  0  0  0  0  0
   14.2015    9.2333   39.4492 C   0  0  0  0  0  0
   17.1761   16.1525   33.5292 C   0  0  0  0  0  0
   13.5823    9.6171   38.0760 C   0  0  2  0  0  0
   16.1964   11.6999   36.1053 C   0  0  0  0  0  0
   12.2505    6.0574   36.9093 C   0  0  0  0  0  0
   16.1918    9.4280   36.7984 O   0  0  0  0  0  0
   15.3883    9.0927   39.6647 O   0  0  0  0  0  0
   11.2120    5.6468   36.4012 O   0  0  0  0  0  0
   12.1935   18.0538   29.5176 N   0  0  0  0  0  0
   13.2973    8.3745   37.1787 C   0  0  0  0  0  0
   17.3810   11.5427   35.3673 C   0  0  0  0  0  0
   15.6396   12.9826   36.2194 C   0  0  0  0  0  0
   12.3413    7.3124   37.7763 C   0  0  0  0  0  0
   18.0925   15.0697   34.1415 C   0  0  0  0  0  0
   13.2077    9.0592   40.3708 O   0  0  0  0  0  0
   17.3981   13.8955   34.8259 C   0  0  0  0  0  0
   13.4543    5.4304   36.7916 O   0  0  0  0  0  0
   16.2403   14.0689   35.5910 C   0  0  0  0  0  0
   17.9741   12.6284   34.7344 C   0  0  0  0  0  0
   17.5891   13.7418   31.1815 C   0  0  0  0  0  0
   14.7084   18.4335   33.5416 C   0  0  0  0  0  0
   14.0896   17.6108   34.6717 C   0  0  0  0  0  0
   12.9620   18.9112   31.7224 H   0  0  0  0  0  0
   13.9202   11.5340   37.2567 H   0  0  0  0  0  0
   16.4856   16.4787   34.2972 H   0  0  0  0  0  0
   17.7917   17.0284   33.3517 H   0  0  0  0  0  0
   12.6292   10.1127   38.2633 H   0  0  0  0  0  0
   12.0306   17.6696   28.6012 H   0  0  0  0  0  0
   11.6170   18.8051   29.8779 H   0  0  0  0  0  0
   14.2374    7.8909   36.9122 H   0  0  0  0  0  0
   12.8794    8.7146   36.2285 H   0  0  0  0  0  0
   17.8528   10.5731   35.2680 H   0  0  0  0  0  0
   14.7525   13.1701   36.8035 H   0  0  0  0  0  0
   11.3415    7.7270   37.9008 H   0  0  0  0  0  0
   12.6804    6.9851   38.7589 H   0  0  0  0  0  0
   18.7012   15.5412   34.9124 H   0  0  0  0  0  0
   18.8096   14.7260   33.3943 H   0  0  0  0  0  0
   12.3342    9.1578   39.9892 H   0  0  0  0  0  0
   13.4092    4.6574   36.2083 H   0  0  0  0  0  0
   15.7976   15.0433   35.7241 H   0  0  0  0  0  0
   18.8862   12.4764   34.1713 H   0  0  0  0  0  0
   18.6057   14.0969   31.0071 H   0  0  0  0  0  0
   17.5926   13.1575   32.0973 H   0  0  0  0  0  0
   17.3577   13.0284   30.3910 H   0  0  0  0  0  0
   15.7731   18.5914   33.7139 H   0  0  0  0  0  0
   14.2620   19.4282   33.5227 H   0  0  0  0  0  0
   14.5908   17.8624   35.5937 H   0  0  0  0  0  0
   13.0243   17.8090   34.7722 H   0  0  0  0  0  0
   14.2087   16.5357   34.5299 H   0  0  0  0  0  0
  1  2  1  0  0  0
  1  3  1  0  0  0
  1  5  2  0  0  0
  2  4  1  0  0  0
  2  8  2  0  0  0
  3  7  2  0  0  0
  4 13  1  0  0  0
  4  6  2  0  0  0
  5  6  1  0  0  0
  6 31  1  0  0  0
  7  9  1  0  0  0
  7 20  1  0  0  0
  8 32  1  0  0  0
  8  9  1  0  0  0
  9 34  1  0  0  0
 10 15  1  0  0  0
 10 11  1  0  0  0
 10 17  2  0  0  0
 11 14  1  0  0  0
 11 35  1  0  0  0
 12 14  1  0  0  0
 12 18  2  0  0  0
 12 26  1  0  0  0
 13 25  1  0  0  0
 13 36  1  0  0  0
 13 37  1  0  0  0
 14 21  1  0  0  0
 14 38  1  0  0  0
 15 22  2  0  0  0
 15 23  1  0  0  0
 16 24  1  0  0  0
 16 19  2  0  0  0
 16 28  1  0  0  0
 20 39  1  0  0  0
 20 40  1  0  0  0
 21 24  1  0  0  0
 21 41  1  0  0  0
 21 42  1  0  0  0
 22 30  1  0  0  0
 22 43  1  0  0  0
 23 29  2  0  0  0
 23 44  1  0  0  0
 24 45  1  0  0  0
 24 46  1  0  0  0
 25 27  1  0  0  0
 25 47  1  0  0  0
 25 48  1  0  0  0
 26 49  1  0  0  0
 27 29  1  0  0  0
 27 30  2  0  0  0
 28 50  1  0  0  0
 29 51  1  0  0  0
 30 52  1  0  0  0
 31 53  1  0  0  0
 31 54  1  0  0  0
 31 55  1  0  0  0
 32 33  1  0  0  0
 32 56  1  0  0  0
 32 57  1  0  0  0
 33 58  1  0  0  0
 33 59  1  0  0  0
 33 60  1  0  0  0
M  END
> <s_m_entry_id>
40957

> <s_m_entry_name>
dock_pv.74

> <s_m_Source_Path>
/home/csk/Desktop/cluster/DUD-E-result/tysy

> <s_m_Source_File>
dock_pv.maegz

> <i_m_Source_File_Index>
74

> <chembl_id>
CHEMBL154935

> <chembl_pref_name>
None

> <i_lp_mmshare_version>
53161

> <r_lp_tautomer_probability>
1

> <s_lp_Force_Field>
OPLS_2005

> <r_lp_Energy>
25.611325

> <b_lp_Chiralities_Consistent>
1

> <s_lp_Variant>
CHEMBL1952_lig88-1

> <s_i_glide_gridfile>
glide-grid_1syn

> <i_i_glide_lignum>
157

> <i_i_glide_rotatable_bonds>
13

> <r_i_docking_score>
-8.58978265775188

> <r_i_glide_ligand_efficiency>
-0.260296444174299

> <r_i_glide_ligand_efficiency_sa>
-0.834909779691818

> <r_i_glide_ligand_efficiency_ln>
-1.91032318756969

> <r_i_glide_gscore>
-8.58978265775188

> <r_i_glide_lipo>
-3.41309503486889

> <r_i_glide_hbond>
-0.246737038939682

> <r_i_glide_metal>
0

> <r_i_glide_rewards>
-1.36903684548855

> <r_i_glide_evdw>
-50.5675392150879

> <r_i_glide_ecoul>
-13.2643098831177

> <r_i_glide_erotb>
0.976083301997687

> <r_i_glide_esite>
-0.0189735972303947

> <r_i_glide_emodel>
-90.1746653271762

> <r_i_glide_energy>
-63.8318490982056

> <r_i_glide_einternal>
15.6378612518311

> <i_i_glide_confnum>
189

> <i_i_glide_posenum>
242

> <r_i_glide_eff_state_penalty>
0

> <s_user_duplicate_titles>
CHEMBL1952_lig88

> <i_f3d_flags>
0

> <s_m_subgroup_title>
dock_pv

> <s_m_subgroupid>
dock_pv

> <b_m_subgroup_collapsed>
1

$$$$
CHEMBL1952_lig102
                    3D
 Schrodinger Suite 2021-1.
 52 54  0  0  1  0            999 V2000
   13.7137   17.0950   30.4673 N   0  0  0  0  0  0
   16.4476   15.8326   32.4477 C   0  0  0  0  0  0
   15.1083   16.5261   32.3813 C   0  0  2  0  0  0
   15.0465   16.6554   30.8649 C   0  0  1  0  0  0
   14.7601   17.9057   33.0120 C   0  0  0  0  0  0
   13.6938   18.5598   32.3741 N   0  0  0  0  0  0
   13.2356   18.2112   31.2250 C   0  0  0  0  0  0
   15.5130   15.3459   30.4532 N   0  0  0  0  0  0
   16.5177   15.0333   31.3609 C   0  0  0  0  0  0
   15.7932   10.7957   36.4194 C   0  0  0  0  0  0
   14.4623   10.6207   36.4679 N   0  0  0  0  0  0
   17.6002   15.9343   33.8058 S   0  0  0  0  0  0
   13.2498    8.5693   35.8217 C   0  0  0  0  0  0
   13.7836    9.4304   36.9949 C   0  0  2  0  0  0
   15.3877   18.2955   33.9908 O   0  0  0  0  0  0
   16.2728   12.1105   35.8594 C   0  0  0  0  0  0
   12.4304   10.9607   40.3910 C   0  0  0  0  0  0
   16.5920    9.9383   36.7915 O   0  0  0  0  0  0
   13.9311    8.2278   34.8757 O   0  0  0  0  0  0
   12.1922   18.9871   30.6875 N   0  0  0  0  0  0
   12.5926   10.5150   41.5245 O   0  0  0  0  0  0
   12.7542    9.8642   38.0820 C   0  0  0  0  0  0
   17.1326   14.4828   34.6809 C   0  0  0  0  0  0
   15.5103   13.2826   35.9914 C   0  0  0  0  0  0
   17.5036   12.1628   35.1909 C   0  0  0  0  0  0
   13.3850   10.6932   39.2288 C   0  0  0  0  0  0
   11.9426    8.2285   35.9909 O   0  0  0  0  0  0
   11.3976   11.7809   40.0459 O   0  0  0  0  0  0
   17.9320   13.3457   34.5979 C   0  0  0  0  0  0
   15.9400   14.4672   35.4006 C   0  0  0  0  0  0
   17.5660   14.0337   30.9368 C   0  0  0  0  0  0
   14.3328   15.8663   32.7721 H   0  0  0  0  0  0
   15.7668   17.3936   30.5093 H   0  0  0  0  0  0
   11.4337   18.5202   30.2123 H   0  0  0  0  0  0
   15.8358   15.4548   29.5025 H   0  0  0  0  0  0
   13.8720   11.3202   36.0468 H   0  0  0  0  0  0
   14.5097    8.7856   37.4929 H   0  0  0  0  0  0
   11.8197   19.7097   31.2848 H   0  0  0  0  0  0
   13.6323   17.2437   29.4723 H   0  0  0  0  0  0
   12.2798    8.9783   38.5080 H   0  0  0  0  0  0
   11.9548   10.4423   37.6157 H   0  0  0  0  0  0
   14.5744   13.2874   36.5300 H   0  0  0  0  0  0
   18.1204   11.2798   35.0908 H   0  0  0  0  0  0
   14.2496   10.1587   39.6246 H   0  0  0  0  0  0
   13.7619   11.6476   38.8616 H   0  0  0  0  0  0
   11.6369    7.7152   35.2310 H   0  0  0  0  0  0
   11.4241   12.0433   39.1231 H   0  0  0  0  0  0
   18.8615   13.3628   34.0449 H   0  0  0  0  0  0
   15.3365   15.3606   35.4755 H   0  0  0  0  0  0
   18.3788   13.9707   31.6621 H   0  0  0  0  0  0
   17.1339   13.0392   30.8182 H   0  0  0  0  0  0
   17.9910   14.3545   29.9913 H   0  0  0  0  0  0
  1  4  1  0  0  0
  1 39  1  0  0  0
  1  7  1  0  0  0
  2  3  1  0  0  0
  2 12  1  0  0  0
  2  9  2  0  0  0
  3  4  1  0  0  0
  3 32  1  0  0  0
  3  5  1  0  0  0
  4  8  1  0  0  0
  4 33  1  0  0  0
  5  6  1  0  0  0
  5 15  2  0  0  0
  6  7  2  0  0  0
  7 20  1  0  0  0
  8  9  1  0  0  0
  8 35  1  0  0  0
  9 31  1  0  0  0
 10 16  1  0  0  0
 10 11  1  0  0  0
 10 18  2  0  0  0
 11 14  1  0  0  0
 11 36  1  0  0  0
 12 23  1  0  0  0
 13 14  1  0  0  0
 13 19  2  0  0  0
 13 27  1  0  0  0
 14 22  1  0  0  0
 14 37  1  0  0  0
 16 24  1  0  0  0
 16 25  2  0  0  0
 17 26  1  0  0  0
 17 21  2  0  0  0
 17 28  1  0  0  0
 20 38  1  0  0  0
 20 34  1  0  0  0
 22 26  1  0  0  0
 22 40  1  0  0  0
 22 41  1  0  0  0
 23 29  2  0  0  0
 23 30  1  0  0  0
 24 30  2  0  0  0
 24 42  1  0  0  0
 25 29  1  0  0  0
 25 43  1  0  0  0
 26 44  1  0  0  0
 26 45  1  0  0  0
 27 46  1  0  0  0
 28 47  1  0  0  0
 29 48  1  0  0  0
 30 49  1  0  0  0
 31 50  1  0  0  0
 31 51  1  0  0  0
 31 52  1  0  0  0
M  END
> <s_m_entry_id>
40958

> <s_m_entry_name>
dock_pv.75

> <s_m_Source_Path>
/home/csk/Desktop/cluster/DUD-E-result/tysy

> <s_m_Source_File>
dock_pv.maegz

> <i_m_Source_File_Index>
75

> <chembl_id>
CHEMBL336487

> <chembl_pref_name>
None

> <i_lp_mmshare_version>
53161

> <r_lp_tautomer_probability>
0.615378461538462

> <s_lp_Force_Field>
OPLS_2005

> <r_lp_Energy>
42.191833

> <b_lp_Chiralities_Consistent>
1

> <s_lp_Variant>
CHEMBL1952_lig102-5

> <s_i_glide_gridfile>
glide-grid_1syn

> <i_i_glide_lignum>
194

> <i_i_glide_rotatable_bonds>
11

> <r_i_docking_score>
-8.58833381224349

> <r_i_glide_ligand_efficiency>
-0.277043026201403

> <r_i_glide_ligand_efficiency_sa>
-0.870297601392852

> <r_i_glide_ligand_efficiency_ln>
-1.93693247548303

> <r_i_glide_gscore>
-8.58833381224349

> <r_i_glide_lipo>
-2.81688702732481

> <r_i_glide_hbond>
-0.469840523277184

> <r_i_glide_metal>
0

> <r_i_glide_rewards>
-1.56324918069228

> <r_i_glide_evdw>
-50.2637329101562

> <r_i_glide_ecoul>
-13.7947826385498

> <r_i_glide_erotb>
0.900101540785158

> <r_i_glide_esite>
-0.0560545804440958

> <r_i_glide_emodel>
-92.320380391195

> <r_i_glide_energy>
-64.0585155487061

> <r_i_glide_einternal>
8.15567207336426

> <i_i_glide_confnum>
219

> <i_i_glide_posenum>
374

> <r_i_glide_eff_state_penalty>
0

> <s_user_duplicate_titles>
CHEMBL1952_lig102

> <i_f3d_flags>
0

> <s_m_subgroup_title>
dock_pv

> <s_m_subgroupid>
dock_pv

> <b_m_subgroup_collapsed>
1

$$$$
CHEMBL1952_lig463
                    3D
 Schrodinger Suite 2021-1.
 42 46  0  0  1  0            999 V2000
   20.1530   13.9710   34.2777 O   0  0  0  0  0  0
   18.7225   14.2720   34.3855 S   0  0  0  0  0  0
   18.3307   15.4265   35.1908 O   0  0  0  0  0  0
   15.5443   15.8436   30.4560 C   0  0  0  0  0  0
   13.8472   17.6340   30.8036 C   0  0  0  0  0  0
   14.1926   16.6649   28.6202 C   0  0  0  0  0  0
   13.5230   18.6005   33.0144 O   0  0  0  0  0  0
   16.2775   16.0933   33.1444 C   0  0  0  0  0  0
   16.5938   15.0587   30.9898 C   0  0  0  0  0  0
   12.3423   19.4587   31.3593 O   0  0  0  0  0  0
   15.2142   16.8662   32.6758 C   0  0  0  0  0  0
   14.5921   17.8548   34.7909 O   0  0  0  0  0  0
   14.4516   17.7886   33.5747 C   0  0  0  0  0  0
   16.9876   15.2088   32.3199 C   0  0  0  0  0  0
   13.5375   17.5694   29.4468 C   0  0  0  0  0  0
   13.1757   18.6239   31.7072 C   0  0  0  0  0  0
   14.8676   16.7609   31.3044 C   0  0  0  0  0  0
   15.1685   15.7953   29.1000 C   0  0  0  0  0  0
   18.1379   14.5061   32.7240 N   0  0  0  0  0  0
   17.8923   12.7786   34.9889 C   0  0  0  0  0  0
   16.7922   10.2924   35.7478 C   0  0  0  0  0  0
   18.0599   10.3610   35.1904 C   0  0  0  0  0  0
   18.5956   11.5815   34.8169 C   0  0  0  0  0  0
   16.0443   11.4700   35.9776 C   0  0  0  0  0  0
   16.5922   12.7445   35.6058 C   0  0  0  0  0  0
   15.8017   13.8955   35.8931 C   0  0  0  0  0  0
   14.5441   13.7878   36.4757 C   0  0  0  0  0  0
   14.0218   12.5454   36.8042 C   0  0  0  0  0  0
   14.7556   11.3913   36.5637 C   0  0  0  0  0  0
   13.9520   16.6375   27.5708 H   0  0  0  0  0  0
   16.5486   16.2477   34.1676 H   0  0  0  0  0  0
   17.1262   14.3864   30.3306 H   0  0  0  0  0  0
   12.7891   18.2247   29.0224 H   0  0  0  0  0  0
   15.6658   15.1091   28.4285 H   0  0  0  0  0  0
   18.6671   14.0158   32.0160 H   0  0  0  0  0  0
   16.3720    9.3353   36.0234 H   0  0  0  0  0  0
   18.6360    9.4600   35.0330 H   0  0  0  0  0  0
   19.5868   11.5864   34.3875 H   0  0  0  0  0  0
   16.1534   14.8837   35.6815 H   0  0  0  0  0  0
   13.9716   14.6810   36.6781 H   0  0  0  0  0  0
   13.0439   12.4773   37.2528 H   0  0  0  0  0  0
   14.3470   10.4269   36.8287 H   0  0  0  0  0  0
  1  2  2  0  0  0
  2  3  2  0  0  0
  2 19  1  0  0  0
  2 20  1  0  0  0
  4  9  1  0  0  0
  4 18  2  0  0  0
  4 17  1  0  0  0
  5 17  2  0  0  0
  5 15  1  0  0  0
  5 16  1  0  0  0
  6 15  2  0  0  0
  6 18  1  0  0  0
  6 30  1  0  0  0
  7 16  1  0  0  0
  7 13  1  0  0  0
  8 11  2  0  0  0
  8 14  1  0  0  0
  8 31  1  0  0  0
  9 14  2  0  0  0
  9 32  1  0  0  0
 10 16  2  0  0  0
 11 13  1  0  0  0
 11 17  1  0  0  0
 12 13  2  0  0  0
 14 19  1  0  0  0
 15 33  1  0  0  0
 18 34  1  0  0  0
 19 35  1  0  0  0
 20 25  2  0  0  0
 20 23  1  0  0  0
 21 24  2  0  0  0
 21 22  1  0  0  0
 21 36  1  0  0  0
 22 23  2  0  0  0
 22 37  1  0  0  0
 23 38  1  0  0  0
 24 25  1  0  0  0
 24 29  1  0  0  0
 25 26  1  0  0  0
 26 27  2  0  0  0
 26 39  1  0  0  0
 27 28  1  0  0  0
 27 40  1  0  0  0
 28 29  2  0  0  0
 28 41  1  0  0  0
 29 42  1  0  0  0
M  END
> <s_m_entry_id>
40959

> <s_m_entry_name>
dock_pv.76

> <s_m_Source_Path>
/home/csk/Desktop/cluster/DUD-E-result/tysy

> <s_m_Source_File>
dock_pv.maegz

> <i_m_Source_File_Index>
76

> <chembl_id>
CHEMBL2323395

> <chembl_pref_name>
None

> <i_lp_mmshare_version>
53161

> <r_lp_tautomer_probability>
1

> <s_lp_Force_Field>
OPLS_2005

> <r_lp_Energy>
42.980202

> <b_lp_Chiralities_Consistent>
1

> <s_lp_Variant>
CHEMBL1952_lig463-1

> <s_i_glide_gridfile>
glide-grid_1syn

> <i_i_glide_lignum>
893

> <i_i_glide_rotatable_bonds>
3

> <r_i_docking_score>
-8.57529395724725

> <r_i_glide_ligand_efficiency>
-0.295699791629216

> <r_i_glide_ligand_efficiency_sa>
-0.908483444154527

> <r_i_glide_ligand_efficiency_ln>
-1.96352486551702

> <r_i_glide_gscore>
-8.57529395724725

> <r_i_glide_lipo>
-4.40890552135492

> <r_i_glide_hbond>
0

> <r_i_glide_metal>
0

> <r_i_glide_rewards>
-1.67066455378141

> <r_i_glide_evdw>
-54.1069755554199

> <r_i_glide_ecoul>
-0.401342242956161

> <r_i_glide_erotb>
0.36192793014527

> <r_i_glide_esite>
-0.0921016980417743

> <r_i_glide_emodel>
-80.5256138507433

> <r_i_glide_energy>
-54.5083177983761

> <r_i_glide_einternal>
3.31486225128174

> <i_i_glide_confnum>
2

> <i_i_glide_posenum>
25

> <r_i_glide_eff_state_penalty>
0

> <s_user_duplicate_titles>
CHEMBL1952_lig463

> <i_f3d_flags>
0

> <s_m_subgroup_title>
dock_pv

> <s_m_subgroupid>
dock_pv

> <b_m_subgroup_collapsed>
1

$$$$
CHEMBL1952_lig143
                    3D
 Schrodinger Suite 2021-1.
 33 35  0  0  1  0            999 V2000
   15.8608   16.2877   32.1817 N   0  0  0  0  0  0
   13.5428   19.0279   32.9297 N   0  0  0  0  0  0
   12.8113   18.9872   31.7630 C   0  0  0  0  0  0
   13.0558   18.0847   30.8705 N   0  0  0  0  0  0
   14.5792   18.2233   33.3082 C   0  0  0  0  0  0
   11.7957   19.9475   31.5910 N   0  0  0  0  0  0
   15.1225   18.3779   34.3907 O   0  0  0  0  0  0
   14.8708   17.2512   32.2627 C   0  0  0  0  0  0
   14.0916   17.2200   31.1082 C   0  0  0  0  0  0
   14.6058   16.1932   30.3200 C   0  0  0  0  0  0
   15.6923   15.6187   30.9760 C   0  0  0  0  0  0
   16.6003   14.4862   30.5398 C   0  0  0  0  0  0
   16.9404   16.0536   33.1532 C   0  0  0  0  0  0
   16.6655   14.9562   34.1767 C   0  0  0  0  0  0
   17.4948   13.8304   34.2352 C   0  0  0  0  0  0
   17.2293   12.8055   35.1440 C   0  0  0  0  0  0
   16.1351   12.8951   36.0064 C   0  0  0  0  0  0
   15.3250   14.0376   35.9844 C   0  0  0  0  0  0
   15.5927   15.0569   35.0692 C   0  0  0  0  0  0
   15.7919   11.5730   37.0689 Cl  0  0  0  0  0  0
   13.9803   14.2130   37.0588 Cl  0  0  0  0  0  0
   13.3090   19.7284   33.6273 H   0  0  0  0  0  0
   11.0963   19.8273   30.8636 H   0  0  0  0  0  0
   11.4787   20.5065   32.3673 H   0  0  0  0  0  0
   14.2285   15.9050   29.3508 H   0  0  0  0  0  0
   16.2699   14.0403   29.6011 H   0  0  0  0  0  0
   17.6271   14.8190   30.3843 H   0  0  0  0  0  0
   16.6307   13.6796   31.2737 H   0  0  0  0  0  0
   17.8502   15.8286   32.5956 H   0  0  0  0  0  0
   17.1557   16.9877   33.6715 H   0  0  0  0  0  0
   18.3371   13.7312   33.5629 H   0  0  0  0  0  0
   17.8647   11.9311   35.1605 H   0  0  0  0  0  0
   14.9519   15.9241   35.0543 H   0  0  0  0  0  0
  1 11  1  0  0  0
  1  8  1  0  0  0
  1 13  1  0  0  0
  2  3  1  0  0  0
  2  5  1  0  0  0
  2 22  1  0  0  0
  3  6  1  0  0  0
  3  4  2  0  0  0
  4  9  1  0  0  0
  5  7  2  0  0  0
  5  8  1  0  0  0
  6 23  1  0  0  0
  6 24  1  0  0  0
  8  9  2  0  0  0
  9 10  1  0  0  0
 10 11  2  0  0  0
 10 25  1  0  0  0
 11 12  1  0  0  0
 12 26  1  0  0  0
 12 27  1  0  0  0
 12 28  1  0  0  0
 13 14  1  0  0  0
 13 29  1  0  0  0
 13 30  1  0  0  0
 14 15  2  0  0  0
 14 19  1  0  0  0
 15 16  1  0  0  0
 15 31  1  0  0  0
 16 17  2  0  0  0
 16 32  1  0  0  0
 17 18  1  0  0  0
 17 20  1  0  0  0
 18 19  2  0  0  0
 18 21  1  0  0  0
 19 33  1  0  0  0
M  END
> <s_m_entry_id>
40960

> <s_m_entry_name>
dock_pv.77

> <s_m_Source_Path>
/home/csk/Desktop/cluster/DUD-E-result/tysy

> <s_m_Source_File>
dock_pv.maegz

> <i_m_Source_File_Index>
77

> <chembl_id>
CHEMBL429308

> <chembl_pref_name>
None

> <i_lp_mmshare_version>
53161

> <r_lp_tautomer_probability>
1

> <s_lp_Force_Field>
OPLS_2005

> <r_lp_Energy>
21.053571

> <b_lp_Chiralities_Consistent>
1

> <s_lp_Variant>
CHEMBL1952_lig143-1

> <s_i_glide_gridfile>
glide-grid_1syn

> <i_i_glide_lignum>
320

> <i_i_glide_rotatable_bonds>
2

> <r_i_docking_score>
-8.56921141487936

> <r_i_glide_ligand_efficiency>
-0.408057686422827

> <r_i_glide_ligand_efficiency_sa>
-1.12580021528757

> <r_i_glide_ligand_efficiency_ln>
-2.11872020660684

> <r_i_glide_gscore>
-8.56921141487936

> <r_i_glide_lipo>
-3.47165846863973

> <r_i_glide_hbond>
-0.456

> <r_i_glide_metal>
0

> <r_i_glide_rewards>
-2.09570911593656

> <r_i_glide_evdw>
-40.2528114318848

> <r_i_glide_ecoul>
-5.84095859527588

> <r_i_glide_erotb>
0.358289711967916

> <r_i_glide_esite>
-0.0153491813853663

> <r_i_glide_emodel>
-71.6110266905671

> <r_i_glide_energy>
-46.0937700271606

> <r_i_glide_einternal>
0.224287554621696

> <i_i_glide_confnum>
4

> <i_i_glide_posenum>
368

> <r_i_glide_eff_state_penalty>
0

> <s_user_duplicate_titles>
CHEMBL1952_lig143

> <i_f3d_flags>
0

> <s_m_subgroup_title>
dock_pv

> <s_m_subgroupid>
dock_pv

> <b_m_subgroup_collapsed>
1

$$$$
CHEMBL1952_lig225
                    3D
 Schrodinger Suite 2021-1.
 61 63  0  0  1  0            999 V2000
   13.4667   18.4980   31.6757 N   0  0  0  0  0  0
   13.1616   18.2088   30.3712 C   0  0  0  0  0  0
   13.7115   17.2253   29.7589 N   0  0  0  0  0  0
   14.3765   17.8704   32.4600 C   0  0  0  0  0  0
   14.6175   18.2458   33.6044 O   0  0  0  0  0  0
   15.0423   16.7185   31.7525 C   0  0  0  0  0  0
   14.6746   16.4552   30.4279 C   0  0  0  0  0  0
   15.2880   15.4162   29.7353 C   0  0  0  0  0  0
   16.2633   14.6447   30.3711 C   0  0  0  0  0  0
   16.6307   14.9009   31.7018 C   0  0  0  0  0  0
   16.0180   15.9555   32.3918 C   0  0  0  0  0  0
   17.6878   14.0023   32.3460 C   0  0  0  0  0  0
   17.9641   14.2851   33.7674 N   0  0  0  0  0  0
   17.4545   13.3531   34.6902 C   0  0  0  0  0  0
   17.9990   12.0663   34.8009 C   0  0  0  0  0  0
   17.3456   11.0869   35.5568 C   0  0  0  0  0  0
   16.1183   11.3710   36.1739 C   0  0  0  0  0  0
   15.6356   12.6862   36.1448 C   0  0  0  0  0  0
   16.3107   13.6763   35.4330 C   0  0  0  0  0  0
   15.2995   10.2662   36.7885 C   0  0  0  0  0  0
   15.7923    9.4285   37.5435 O   0  0  0  0  0  0
   14.0147   10.2379   36.3930 N   0  0  0  0  0  0
   13.0381    9.1796   36.6899 C   0  0  1  0  0  0
   11.6341    9.6369   36.2141 C   0  0  0  0  0  0
   13.4298    7.8040   36.0900 C   0  0  0  0  0  0
   12.7394    6.8072   36.7127 O   0  0  0  0  0  0
   14.2258    7.6481   35.1876 O   0  0  0  0  0  0
   11.5050    9.9151   34.6950 C   0  0  0  0  0  0
   10.0983   10.3618   34.3035 C   0  0  0  0  0  0
    9.6857    9.8350   33.1141 O   0  0  0  0  0  0
    9.4221   11.1346   34.9784 O   0  0  0  0  0  0
   12.1954   19.1108   29.6427 C   0  0  0  0  0  0
   15.7878   14.9252   35.4072 F   0  0  0  0  0  0
   19.2338   14.9191   34.1061 C   0  0  0  0  0  0
   20.4956   14.2349   33.6161 C   0  0  0  0  0  0
   21.6647   14.2279   34.2692 C   0  0  0  0  0  0
   13.0298   19.2915   32.1172 H   0  0  0  0  0  0
   15.0087   15.2096   28.7122 H   0  0  0  0  0  0
   16.7280   13.8339   29.8293 H   0  0  0  0  0  0
   16.3022   16.1886   33.4085 H   0  0  0  0  0  0
   17.3859   12.9625   32.2105 H   0  0  0  0  0  0
   18.5884   14.1209   31.7446 H   0  0  0  0  0  0
   18.8968   11.8132   34.2507 H   0  0  0  0  0  0
   17.7559   10.0866   35.5807 H   0  0  0  0  0  0
   14.7150   12.9519   36.6474 H   0  0  0  0  0  0
   13.7004   10.9585   35.7627 H   0  0  0  0  0  0
   13.0181    9.0640   37.7752 H   0  0  0  0  0  0
   10.8929    8.8897   36.5053 H   0  0  0  0  0  0
   11.3557   10.5363   36.7674 H   0  0  0  0  0  0
   12.9646    5.9502   36.3403 H   0  0  0  0  0  0
   12.1951   10.6981   34.3910 H   0  0  0  0  0  0
   11.7827    9.0300   34.1253 H   0  0  0  0  0  0
   10.3209    9.2469   32.6919 H   0  0  0  0  0  0
   11.3561   18.5433   29.2406 H   0  0  0  0  0  0
   11.7932   19.8852   30.2956 H   0  0  0  0  0  0
   12.6898   19.6112   28.8094 H   0  0  0  0  0  0
   19.2086   15.9201   33.6750 H   0  0  0  0  0  0
   19.2925   15.0800   35.1856 H   0  0  0  0  0  0
   20.4531   13.7961   32.6350 H   0  0  0  0  0  0
   22.5359   13.7481   33.8454 H   0  0  0  0  0  0
   21.7708   14.6974   35.2142 H   0  0  0  0  0  0
  1  2  1  0  0  0
  1  4  1  0  0  0
  1 37  1  0  0  0
  2 32  1  0  0  0
  2  3  2  0  0  0
  3  7  1  0  0  0
  4  6  1  0  0  0
  4  5  2  0  0  0
  6 11  1  0  0  0
  6  7  2  0  0  0
  7  8  1  0  0  0
  8  9  2  0  0  0
  8 38  1  0  0  0
  9 10  1  0  0  0
  9 39  1  0  0  0
 10 11  2  0  0  0
 10 12  1  0  0  0
 11 40  1  0  0  0
 12 13  1  0  0  0
 12 41  1  0  0  0
 12 42  1  0  0  0
 13 14  1  0  0  0
 13 34  1  0  0  0
 14 19  1  0  0  0
 14 15  2  0  0  0
 15 16  1  0  0  0
 15 43  1  0  0  0
 16 17  2  0  0  0
 16 44  1  0  0  0
 17 18  1  0  0  0
 17 20  1  0  0  0
 18 19  2  0  0  0
 18 45  1  0  0  0
 19 33  1  0  0  0
 20 21  2  0  0  0
 20 22  1  0  0  0
 22 23  1  0  0  0
 22 46  1  0  0  0
 23 24  1  0  0  0
 23 25  1  0  0  0
 23 47  1  0  0  0
 24 28  1  0  0  0
 24 48  1  0  0  0
 24 49  1  0  0  0
 25 26  1  0  0  0
 25 27  2  0  0  0
 26 50  1  0  0  0
 28 29  1  0  0  0
 28 51  1  0  0  0
 28 52  1  0  0  0
 29 30  1  0  0  0
 29 31  2  0  0  0
 30 53  1  0  0  0
 32 54  1  0  0  0
 32 55  1  0  0  0
 32 56  1  0  0  0
 34 35  1  0  0  0
 34 57  1  0  0  0
 34 58  1  0  0  0
 35 36  2  0  0  0
 35 59  1  0  0  0
 36 60  1  0  0  0
 36 61  1  0  0  0
M  END
> <s_m_entry_id>
40961

> <s_m_entry_name>
dock_pv.78

> <s_m_Source_Path>
/home/csk/Desktop/cluster/DUD-E-result/tysy

> <s_m_Source_File>
dock_pv.maegz

> <i_m_Source_File_Index>
78

> <chembl_id>
CHEMBL105208

> <chembl_pref_name>
None

> <i_lp_mmshare_version>
53161

> <r_lp_tautomer_probability>
0.883938

> <s_lp_Force_Field>
OPLS_2005

> <r_lp_Energy>
25.607405

> <b_lp_Chiralities_Consistent>
1

> <s_lp_Variant>
CHEMBL1952_lig225-1

> <s_i_glide_gridfile>
glide-grid_1syn

> <i_i_glide_lignum>
446

> <i_i_glide_rotatable_bonds>
14

> <r_i_docking_score>
-8.56378262434305

> <r_i_glide_ligand_efficiency>
-0.237882850676196

> <r_i_glide_ligand_efficiency_sa>
-0.785471865754211

> <r_i_glide_ligand_efficiency_ln>
-1.86838600196286

> <r_i_glide_gscore>
-8.56378262434305

> <r_i_glide_lipo>
-3.18787061555769

> <r_i_glide_hbond>
-0.607825870109766

> <r_i_glide_metal>
0

> <r_i_glide_rewards>
-1.21659514557607

> <r_i_glide_evdw>
-54.9166564941406

> <r_i_glide_ecoul>
-11.989351272583

> <r_i_glide_erotb>
0.992744522494958

> <r_i_glide_esite>
0

> <r_i_glide_emodel>
-93.0680904394234

> <r_i_glide_energy>
-66.9060077667236

> <r_i_glide_einternal>
17.5877475738525

> <i_i_glide_confnum>
15

> <i_i_glide_posenum>
180

> <r_i_glide_eff_state_penalty>
0

> <s_user_duplicate_titles>
CHEMBL1952_lig225

> <i_f3d_flags>
0

> <s_m_subgroup_title>
dock_pv

> <s_m_subgroupid>
dock_pv

> <b_m_subgroup_collapsed>
1

$$$$
CHEMBL1952_lig379
                    3D
 Schrodinger Suite 2021-1.
 49 53  0  0  1  0            999 V2000
   13.7634   16.7622   29.3079 N   0  0  0  0  0  0
   13.2230   17.6418   30.0646 C   0  0  0  0  0  0
   14.7534   16.1603   30.0779 C   0  0  0  0  0  0
   14.7871   16.7053   31.3336 C   0  0  0  0  0  0
   15.6842   16.3467   32.3585 C   0  0  0  0  0  0
   16.6382   15.3062   32.0441 C   0  0  0  0  0  0
   13.8218   17.6858   31.3996 C   0  0  0  0  0  0
   17.6430   14.8406   32.9343 N   0  0  0  0  0  0
   16.6840   11.1372   35.7888 C   0  0  0  0  0  0
   16.5896   14.7487   30.7400 C   0  0  0  0  0  0
   17.8799   10.5042   35.6843 N   0  0  0  0  0  0
   15.6648   15.1582   29.7685 C   0  0  0  0  0  0
   17.3937   14.6148   34.3669 C   0  0  0  0  0  0
   15.3675   10.1731   36.5008 S   0  0  0  0  0  0
   12.1920   18.4773   29.7156 N   0  0  0  0  0  0
   17.5900   13.1651   34.8254 C   0  0  0  0  0  0
   16.5044   12.4572   35.3539 C   0  0  0  0  0  0
   14.0272   11.2991   36.7891 C   0  0  0  0  0  0
   15.5409   17.1125   33.5536 C   0  0  0  0  0  0
   18.9347   11.1981   35.1916 C   0  0  0  0  0  0
   13.6961   18.4006   32.5896 C   0  0  0  0  0  0
   18.9534   14.5106   32.3716 C   0  0  0  0  0  0
   14.5579   18.1120   33.6569 C   0  0  0  0  0  0
   18.8382   12.5282   34.7869 C   0  0  0  0  0  0
   14.2172   12.4404   37.5745 C   0  0  0  0  0  0
   12.7718   11.0121   36.2528 C   0  0  0  0  0  0
   11.7089   11.8868   36.4761 C   0  0  0  0  0  0
   13.1582   13.3194   37.7896 C   0  0  0  0  0  0
   11.9102   13.0394   37.2377 C   0  0  0  0  0  0
   17.2765   13.9598   30.4649 H   0  0  0  0  0  0
   15.6702   14.6988   28.7910 H   0  0  0  0  0  0
   18.0625   15.2674   34.9283 H   0  0  0  0  0  0
   16.3800   14.8996   34.6424 H   0  0  0  0  0  0
   11.8063   18.4401   28.7850 H   0  0  0  0  0  0
   11.7377   19.0761   30.3893 H   0  0  0  0  0  0
   15.5367   12.9314   35.3943 H   0  0  0  0  0  0
   16.1929   16.9463   34.3902 H   0  0  0  0  0  0
   19.8783   10.6740   35.1237 H   0  0  0  0  0  0
   12.9632   19.1883   32.6958 H   0  0  0  0  0  0
   19.0047   13.4412   32.1719 H   0  0  0  0  0  0
   19.1456   15.0279   31.4313 H   0  0  0  0  0  0
   19.7562   14.7807   33.0582 H   0  0  0  0  0  0
   14.4632   18.6801   34.5733 H   0  0  0  0  0  0
   19.7210   13.0265   34.4148 H   0  0  0  0  0  0
   15.1896   12.6564   37.9920 H   0  0  0  0  0  0
   12.6216   10.1225   35.6569 H   0  0  0  0  0  0
   10.7390   11.6776   36.0511 H   0  0  0  0  0  0
   13.3061   14.2171   38.3751 H   0  0  0  0  0  0
   11.0890   13.7211   37.3963 H   0  0  0  0  0  0
  1  2  2  0  0  0
  1  3  1  0  0  0
  2  7  1  0  0  0
  2 15  1  0  0  0
  3  4  1  0  0  0
  3 12  2  0  0  0
  4  5  1  0  0  0
  4  7  2  0  0  0
  5 19  2  0  0  0
  5  6  1  0  0  0
  6 10  2  0  0  0
  6  8  1  0  0  0
  7 21  1  0  0  0
  8 13  1  0  0  0
  8 22  1  0  0  0
  9 17  1  0  0  0
  9 14  1  0  0  0
  9 11  2  0  0  0
 10 12  1  0  0  0
 10 30  1  0  0  0
 11 20  1  0  0  0
 12 31  1  0  0  0
 13 16  1  0  0  0
 13 32  1  0  0  0
 13 33  1  0  0  0
 14 18  1  0  0  0
 15 34  1  0  0  0
 15 35  1  0  0  0
 16 17  2  0  0  0
 16 24  1  0  0  0
 17 36  1  0  0  0
 18 25  2  0  0  0
 18 26  1  0  0  0
 19 23  1  0  0  0
 19 37  1  0  0  0
 20 24  2  0  0  0
 20 38  1  0  0  0
 21 23  2  0  0  0
 21 39  1  0  0  0
 22 40  1  0  0  0
 22 41  1  0  0  0
 22 42  1  0  0  0
 23 43  1  0  0  0
 24 44  1  0  0  0
 25 28  1  0  0  0
 25 45  1  0  0  0
 26 27  2  0  0  0
 26 46  1  0  0  0
 27 29  1  0  0  0
 27 47  1  0  0  0
 28 29  2  0  0  0
 28 48  1  0  0  0
 29 49  1  0  0  0
M  END
> <s_m_entry_id>
40962

> <s_m_entry_name>
dock_pv.79

> <s_m_Source_Path>
/home/csk/Desktop/cluster/DUD-E-result/tysy

> <s_m_Source_File>
dock_pv.maegz

> <i_m_Source_File_Index>
79

> <chembl_id>
CHEMBL56637

> <chembl_pref_name>
None

> <i_lp_mmshare_version>
53161

> <r_lp_tautomer_probability>
1

> <s_lp_Force_Field>
OPLS_2005

> <r_lp_Energy>
49.725654

> <b_lp_Chiralities_Consistent>
1

> <s_lp_Variant>
CHEMBL1952_lig379-1

> <s_i_glide_gridfile>
glide-grid_1syn

> <i_i_glide_lignum>
753

> <i_i_glide_rotatable_bonds>
5

> <r_i_docking_score>
-8.55861952477399

> <r_i_glide_ligand_efficiency>
-0.295124811199103

> <r_i_glide_ligand_efficiency_sa>
-0.906716922106635

> <r_i_glide_ligand_efficiency_ln>
-1.95970684330777

> <r_i_glide_gscore>
-8.55861952477399

> <r_i_glide_lipo>
-4.25955001043133

> <r_i_glide_hbond>
-0.0167697256868822

> <r_i_glide_metal>
0

> <r_i_glide_rewards>
-1.38450217125069

> <r_i_glide_evdw>
-54.1840667724609

> <r_i_glide_ecoul>
-5.17166805267334

> <r_i_glide_erotb>
0.622238811241484

> <r_i_glide_esite>
-0.0350828821225207

> <r_i_glide_emodel>
-90.6560617078892

> <r_i_glide_energy>
-59.3557348251343

> <r_i_glide_einternal>
2.95440173149109

> <i_i_glide_confnum>
7

> <i_i_glide_posenum>
87

> <r_i_glide_eff_state_penalty>
0

> <s_user_duplicate_titles>
CHEMBL1952_lig379,87488

> <i_f3d_flags>
0

> <s_m_subgroup_title>
dock_pv

> <s_m_subgroupid>
dock_pv

> <b_m_subgroup_collapsed>
1

$$$$
CHEMBL1952_lig96
                    3D
 Schrodinger Suite 2021-1.
 56 58  0  0  1  0            999 V2000
   13.1525   18.4408   31.8590 N   0  0  0  0  0  0
   14.0954   18.0614   32.7495 C   0  0  0  0  0  0
   15.0522   17.0515   32.4410 C   0  0  0  0  0  0
   13.1539   17.8207   30.6623 C   0  0  0  0  0  0
   13.9943   16.8391   30.2596 N   0  0  0  0  0  0
   14.9478   16.4479   31.1524 C   0  0  0  0  0  0
   13.8052   11.9524   37.5827 C   0  0  0  0  0  0
   13.0268   11.0453   36.9649 N   0  0  0  0  0  0
   11.1712    9.4254   36.4166 C   0  0  0  0  0  0
   18.1153   13.8926   34.3165 N   0  0  0  0  0  0
   11.8645   10.3085   37.4920 C   0  0  2  0  0  0
   16.0873   16.6330   33.3140 C   0  0  0  0  0  0
   14.9531   12.4569   36.7527 C   0  0  0  0  0  0
    9.4800   13.3849   38.3415 C   0  0  0  0  0  0
   14.1884   18.6281   33.9911 O   0  0  0  0  0  0
   17.0783   13.4112   35.1635 C   0  0  0  0  0  0
   18.1481   15.2890   33.8677 C   0  0  0  0  0  0
   13.6231   12.3704   38.7261 O   0  0  0  0  0  0
   16.9922   15.6445   32.9324 C   0  0  0  0  0  0
   10.1598    8.7974   36.6393 O   0  0  0  0  0  0
   15.8628   15.4283   30.7917 C   0  0  0  0  0  0
   12.1918   18.2322   29.7570 N   0  0  0  0  0  0
    9.5358   13.4334   39.5696 O   0  0  0  0  0  0
   15.2139   13.8260   36.6760 C   0  0  0  0  0  0
   15.7807   11.5625   36.0665 C   0  0  0  0  0  0
   16.8410   12.0358   35.3008 C   0  0  0  0  0  0
   16.2578   14.2941   35.8825 C   0  0  0  0  0  0
   10.8542   11.2180   38.2579 C   0  0  0  0  0  0
   10.2748   12.4123   37.4655 C   0  0  0  0  0  0
   11.8282    9.4276   35.2166 O   0  0  0  0  0  0
   16.8700   15.0405   31.6782 C   0  0  0  0  0  0
    8.7221   14.2280   37.5911 O   0  0  0  0  0  0
   18.9917   12.9590   33.6061 C   0  0  0  0  0  0
   13.2420   10.8196   36.0041 H   0  0  0  0  0  0
   12.2668    9.5953   38.2130 H   0  0  0  0  0  0
   16.1743   17.1086   34.2777 H   0  0  0  0  0  0
   13.5356   19.3286   34.1321 H   0  0  0  0  0  0
   18.1939   15.9556   34.7291 H   0  0  0  0  0  0
   19.0704   15.4810   33.3156 H   0  0  0  0  0  0
   15.7817   14.9647   29.8188 H   0  0  0  0  0  0
   11.5327   18.9511   30.0282 H   0  0  0  0  0  0
   12.2021   17.8469   28.8275 H   0  0  0  0  0  0
   14.6043   14.5376   37.2155 H   0  0  0  0  0  0
   15.6197   10.4958   36.1276 H   0  0  0  0  0  0
   17.4512   11.3086   34.7886 H   0  0  0  0  0  0
   16.4149   15.3589   35.8427 H   0  0  0  0  0  0
   11.3221   11.5768   39.1747 H   0  0  0  0  0  0
   10.0237   10.6087   38.6187 H   0  0  0  0  0  0
    9.6371   12.0474   36.6606 H   0  0  0  0  0  0
   11.0739   12.9836   36.9938 H   0  0  0  0  0  0
   11.3939    8.8224   34.6033 H   0  0  0  0  0  0
   17.5721   14.2743   31.3804 H   0  0  0  0  0  0
    8.2756   14.9035   38.1234 H   0  0  0  0  0  0
   19.3911   12.1996   34.2789 H   0  0  0  0  0  0
   18.4438   12.4476   32.8122 H   0  0  0  0  0  0
   19.8406   13.4625   33.1454 H   0  0  0  0  0  0
  1  2  2  0  0  0
  1  4  1  0  0  0
  2  3  1  0  0  0
  2 15  1  0  0  0
  3 12  2  0  0  0
  3  6  1  0  0  0
  4  5  2  0  0  0
  4 22  1  0  0  0
  5  6  1  0  0  0
  6 21  2  0  0  0
  7 13  1  0  0  0
  7  8  1  0  0  0
  7 18  2  0  0  0
  8 11  1  0  0  0
  8 34  1  0  0  0
  9 11  1  0  0  0
  9 20  2  0  0  0
  9 30  1  0  0  0
 10 17  1  0  0  0
 10 16  1  0  0  0
 10 33  1  0  0  0
 11 28  1  0  0  0
 11 35  1  0  0  0
 12 19  1  0  0  0
 12 36  1  0  0  0
 13 24  2  0  0  0
 13 25  1  0  0  0
 14 29  1  0  0  0
 14 23  2  0  0  0
 14 32  1  0  0  0
 15 37  1  0  0  0
 16 26  1  0  0  0
 16 27  2  0  0  0
 17 19  1  0  0  0
 17 38  1  0  0  0
 17 39  1  0  0  0
 19 31  2  0  0  0
 21 31  1  0  0  0
 21 40  1  0  0  0
 22 41  1  0  0  0
 22 42  1  0  0  0
 24 27  1  0  0  0
 24 43  1  0  0  0
 25 26  2  0  0  0
 25 44  1  0  0  0
 26 45  1  0  0  0
 27 46  1  0  0  0
 28 29  1  0  0  0
 28 47  1  0  0  0
 28 48  1  0  0  0
 29 49  1  0  0  0
 29 50  1  0  0  0
 30 51  1  0  0  0
 31 52  1  0  0  0
 32 53  1  0  0  0
 33 54  1  0  0  0
 33 55  1  0  0  0
 33 56  1  0  0  0
M  END
> <s_m_entry_id>
40963

> <s_m_entry_name>
dock_pv.80

> <s_m_Source_Path>
/home/csk/Desktop/cluster/DUD-E-result/tysy

> <s_m_Source_File>
dock_pv.maegz

> <i_m_Source_File_Index>
80

> <chembl_id>
CHEMBL347223

> <chembl_pref_name>
None

> <i_lp_mmshare_version>
53161

> <r_lp_tautomer_probability>
1

> <s_lp_Force_Field>
OPLS_2005

> <r_lp_Energy>
13.44416

> <b_lp_Chiralities_Consistent>
1

> <s_lp_Variant>
CHEMBL1952_lig96-1

> <s_i_glide_gridfile>
glide-grid_1syn

> <i_i_glide_lignum>
167

> <i_i_glide_rotatable_bonds>
13

> <r_i_docking_score>
-8.55096344594767

> <r_i_glide_ligand_efficiency>
-0.259120104422657

> <r_i_glide_ligand_efficiency_sa>
-0.831136629559083

> <r_i_glide_ligand_efficiency_ln>
-1.90168999585956

> <r_i_glide_gscore>
-8.55096344594767

> <r_i_glide_lipo>
-3.70754157029265

> <r_i_glide_hbond>
-0.274025856145495

> <r_i_glide_metal>
0

> <r_i_glide_rewards>
-0.881143616043343

> <r_i_glide_evdw>
-50.0300140380859

> <r_i_glide_ecoul>
-14.2913618087769

> <r_i_glide_erotb>
0.976251941710487

> <r_i_glide_esite>
-0.0192993719558439

> <r_i_glide_emodel>
-92.2811511993823

> <r_i_glide_energy>
-64.3213758468628

> <r_i_glide_einternal>
11.0076923370361

> <i_i_glide_confnum>
110

> <i_i_glide_posenum>
224

> <r_i_glide_eff_state_penalty>
0

> <s_user_duplicate_titles>
CHEMBL1952_lig96,232186,266695

> <i_f3d_flags>
0

> <s_m_subgroup_title>
dock_pv

> <s_m_subgroupid>
dock_pv

> <b_m_subgroup_collapsed>
1

$$$$
CHEMBL1952_lig164
                    3D
 Schrodinger Suite 2021-1.
 33 35  0  0  1  0            999 V2000
   15.2309   13.0828   36.4847 C   0  0  0  0  0  0
   14.4669   14.1740   36.0768 C   0  0  0  0  0  0
   14.9913   15.0781   35.1576 C   0  0  0  0  0  0
   16.2770   14.8851   34.6482 C   0  0  0  0  0  0
   17.0466   13.8028   35.0771 C   0  0  0  0  0  0
   16.5197   12.8942   35.9909 C   0  0  0  0  0  0
   16.9963   16.0242   33.4991 S   0  0  0  0  0  0
   15.7663   16.2056   32.2315 C   0  0  0  0  0  0
   14.4522   16.0358   29.9917 S   0  0  0  0  0  0
   15.7523   15.4723   31.0169 C   0  0  0  0  0  0
   13.9908   17.2461   31.1204 C   0  0  0  0  0  0
   14.7742   17.2140   32.2716 C   0  0  0  0  0  0
   14.4831   18.2142   33.3069 C   0  0  0  0  0  0
   13.4567   19.0281   32.9410 N   0  0  0  0  0  0
   12.7558   19.0280   31.7655 C   0  0  0  0  0  0
   12.9890   18.1393   30.8641 N   0  0  0  0  0  0
   16.6386   14.3764   30.4296 C   0  0  0  0  0  0
   11.7920   20.0307   31.5909 N   0  0  0  0  0  0
   15.0142   18.3935   34.3912 O   0  0  0  0  0  0
   17.6348   13.6934   31.3740 C   0  0  0  0  0  0
   14.8256   12.3819   37.1990 H   0  0  0  0  0  0
   13.4724   14.3195   36.4713 H   0  0  0  0  0  0
   14.3930   15.9199   34.8530 H   0  0  0  0  0  0
   18.0481   13.6615   34.6960 H   0  0  0  0  0  0
   17.1127   12.0542   36.3211 H   0  0  0  0  0  0
   13.2317   19.7226   33.6508 H   0  0  0  0  0  0
   16.0160   13.5948   29.9910 H   0  0  0  0  0  0
   17.1995   14.7904   29.5915 H   0  0  0  0  0  0
   11.0991   19.8903   30.8623 H   0  0  0  0  0  0
   11.3925   20.4687   32.4059 H   0  0  0  0  0  0
   18.1585   12.8914   30.8567 H   0  0  0  0  0  0
   18.3997   14.3846   31.7276 H   0  0  0  0  0  0
   17.1340   13.2532   32.2351 H   0  0  0  0  0  0
  1  6  1  0  0  0
  1  2  2  0  0  0
  1 21  1  0  0  0
  2  3  1  0  0  0
  2 22  1  0  0  0
  3  4  2  0  0  0
  3 23  1  0  0  0
  4  7  1  0  0  0
  4  5  1  0  0  0
  5  6  2  0  0  0
  5 24  1  0  0  0
  6 25  1  0  0  0
  7  8  1  0  0  0
  8 10  2  0  0  0
  8 12  1  0  0  0
  9 11  1  0  0  0
  9 10  1  0  0  0
 10 17  1  0  0  0
 11 12  2  0  0  0
 11 16  1  0  0  0
 12 13  1  0  0  0
 13 14  1  0  0  0
 13 19  2  0  0  0
 14 15  1  0  0  0
 14 26  1  0  0  0
 15 16  2  0  0  0
 15 18  1  0  0  0
 17 20  1  0  0  0
 17 27  1  0  0  0
 17 28  1  0  0  0
 18 29  1  0  0  0
 18 30  1  0  0  0
 20 31  1  0  0  0
 20 32  1  0  0  0
 20 33  1  0  0  0
M  END
> <s_m_entry_id>
40964

> <s_m_entry_name>
dock_pv.81

> <s_m_Source_Path>
/home/csk/Desktop/cluster/DUD-E-result/tysy

> <s_m_Source_File>
dock_pv.maegz

> <i_m_Source_File_Index>
81

> <chembl_id>
CHEMBL550769

> <chembl_pref_name>
None

> <i_lp_mmshare_version>
53161

> <r_lp_tautomer_probability>
1

> <s_lp_Force_Field>
OPLS_2005

> <r_lp_Energy>
13.626249

> <b_lp_Chiralities_Consistent>
1

> <s_lp_Variant>
CHEMBL1952_lig164-1

> <s_i_glide_gridfile>
glide-grid_1syn

> <i_i_glide_lignum>
341

> <i_i_glide_rotatable_bonds>
3

> <r_i_docking_score>
-8.54840808153919

> <r_i_glide_ligand_efficiency>
-0.427420404076959

> <r_i_glide_ligand_efficiency_sa>
-1.16019747336007

> <r_i_glide_ligand_efficiency_ln>
-2.13938459744097

> <r_i_glide_gscore>
-8.54840808153919

> <r_i_glide_lipo>
-3.63773643256629

> <r_i_glide_hbond>
-0.456

> <r_i_glide_metal>
0

> <r_i_glide_rewards>
-1.78307134641983

> <r_i_glide_evdw>
-42.6005249023438

> <r_i_glide_ecoul>
-6.15914630889893

> <r_i_glide_erotb>
0.400343953444015

> <r_i_glide_esite>
-0.0180460645450546

> <r_i_glide_emodel>
-71.5671440032965

> <r_i_glide_energy>
-48.7596712112427

> <r_i_glide_einternal>
5.76120090484619

> <i_i_glide_confnum>
6

> <i_i_glide_posenum>
137

> <r_i_glide_eff_state_penalty>
0

> <s_user_duplicate_titles>
CHEMBL1952_lig164

> <i_f3d_flags>
0

> <s_m_subgroup_title>
dock_pv

> <s_m_subgroupid>
dock_pv

> <b_m_subgroup_collapsed>
1

$$$$
CHEMBL1952_lig438
                    3D
 Schrodinger Suite 2021-1.
 46 48  0  0  1  0            999 V2000
   16.5903   14.5614   34.6406 N   0  0  0  0  0  0
   17.7917   13.9905   34.2646 C   0  0  0  0  0  0
   18.0951   14.1582   32.9414 N   0  0  0  0  0  0
   16.2071   15.5134   32.4453 C   0  0  0  0  0  0
   15.9292   14.0323   35.8408 C   0  0  2  0  0  0
   17.4108   14.8189   31.9642 C   0  0  0  0  0  0
   15.9098   15.3757   33.7604 C   0  0  0  0  0  0
   13.2061    8.9378   35.6265 P   0  0  0  0  0  0
   15.8641   12.6317   35.8333 O   0  0  0  0  0  0
   14.4764   14.4157   36.1462 C   0  0  0  0  0  0
   15.1207   12.2116   36.9695 C   0  0  1  0  0  0
   14.0187   13.2796   37.0674 C   0  0  1  0  0  0
   15.3380   16.3335   31.5449 C   0  0  0  0  0  0
   14.6819   10.7337   36.8571 C   0  0  0  0  0  0
   18.5380   13.3326   34.9880 O   0  0  0  0  0  0
   13.5849   10.4854   35.9910 O   0  0  0  0  0  0
   12.9336    8.2638   37.0731 O   0  0  0  0  0  0
   11.7194    9.0296   34.9963 O   0  0  0  0  0  0
   17.8249   14.8085   30.8077 O   0  0  0  0  0  0
   14.1918    8.2029   34.7911 O   0  0  0  0  0  0
   15.1476   15.9998   30.1932 C   0  0  0  0  0  0
   14.6338   17.4345   32.0569 C   0  0  0  0  0  0
   13.7944   13.7297   38.3907 O   0  0  0  0  0  0
   14.3114   16.7567   29.3766 C   0  0  0  0  0  0
   13.7918   18.1898   31.2463 C   0  0  0  0  0  0
   13.6340   17.8537   29.9038 C   0  0  0  0  0  0
   12.7295   18.6967   29.0238 C   0  0  0  0  0  0
   18.9370   13.6913   32.6296 H   0  0  0  0  0  0
   16.5925   14.3583   36.6498 H   0  0  0  0  0  0
   15.0537   15.8554   34.2047 H   0  0  0  0  0  0
   13.8820   14.3879   35.2318 H   0  0  0  0  0  0
   14.4379   15.4150   36.5794 H   0  0  0  0  0  0
   15.7978   12.2777   37.8168 H   0  0  0  0  0  0
   13.0832   12.8756   36.6753 H   0  0  0  0  0  0
   14.3963   10.3811   37.8493 H   0  0  0  0  0  0
   15.5427   10.1355   36.5494 H   0  0  0  0  0  0
   13.1102    7.3041   37.1024 H   0  0  0  0  0  0
   11.4643    8.2853   34.3975 H   0  0  0  0  0  0
   15.6353   15.1405   29.7581 H   0  0  0  0  0  0
   14.7485   17.7357   33.0874 H   0  0  0  0  0  0
   13.2548   14.5229   38.3521 H   0  0  0  0  0  0
   14.1924   16.4815   28.3376 H   0  0  0  0  0  0
   13.2727   19.0433   31.6585 H   0  0  0  0  0  0
   12.5921   18.2567   28.0354 H   0  0  0  0  0  0
   11.7442   18.8078   29.4815 H   0  0  0  0  0  0
   13.1437   19.6992   28.9026 H   0  0  0  0  0  0
  1  2  1  0  0  0
  1  5  1  0  0  0
  1  7  1  0  0  0
  2  3  1  0  0  0
  2 15  2  0  0  0
  3  6  1  0  0  0
  3 28  1  0  0  0
  4  7  2  0  0  0
  4  6  1  0  0  0
  4 13  1  0  0  0
  5  9  1  0  0  0
  5 10  1  0  0  0
  5 29  1  0  0  0
  6 19  2  0  0  0
  7 30  1  0  0  0
  8 16  1  0  0  0
  8 17  1  0  0  0
  8 18  1  0  0  0
  8 20  2  0  0  0
  9 11  1  0  0  0
 10 12  1  0  0  0
 10 31  1  0  0  0
 10 32  1  0  0  0
 11 14  1  0  0  0
 11 12  1  0  0  0
 11 33  1  0  0  0
 12 23  1  0  0  0
 12 34  1  0  0  0
 13 21  2  0  0  0
 13 22  1  0  0  0
 14 16  1  0  0  0
 14 35  1  0  0  0
 14 36  1  0  0  0
 17 37  1  0  0  0
 18 38  1  0  0  0
 21 24  1  0  0  0
 21 39  1  0  0  0
 22 25  2  0  0  0
 22 40  1  0  0  0
 23 41  1  0  0  0
 24 26  2  0  0  0
 24 42  1  0  0  0
 25 26  1  0  0  0
 25 43  1  0  0  0
 26 27  1  0  0  0
 27 44  1  0  0  0
 27 45  1  0  0  0
 27 46  1  0  0  0
M  END
> <s_m_entry_id>
40965

> <s_m_entry_name>
dock_pv.82

> <s_m_Source_Path>
/home/csk/Desktop/cluster/DUD-E-result/tysy

> <s_m_Source_File>
dock_pv.maegz

> <i_m_Source_File_Index>
82

> <chembl_id>
CHEMBL3144187

> <chembl_pref_name>
None

> <i_lp_mmshare_version>
53161

> <r_lp_tautomer_probability>
0.999537046341301

> <s_lp_Force_Field>
OPLS_2005

> <r_lp_Energy>
23.468892

> <b_lp_Chiralities_Consistent>
1

> <s_lp_Variant>
CHEMBL1952_lig438-1

> <s_i_glide_gridfile>
glide-grid_1syn

> <i_i_glide_lignum>
868

> <i_i_glide_rotatable_bonds>
8

> <r_i_docking_score>
-8.54711360865047

> <r_i_glide_ligand_efficiency>
-0.316559763283351

> <r_i_glide_ligand_efficiency_sa>
-0.949679288806723

> <r_i_glide_ligand_efficiency_ln>
-1.98962713791326

> <r_i_glide_gscore>
-8.54711360865047

> <r_i_glide_lipo>
-3.01844003355855

> <r_i_glide_hbond>
-0.31324805067433

> <r_i_glide_metal>
0

> <r_i_glide_rewards>
-1.77589301872457

> <r_i_glide_evdw>
-42.7244644165039

> <r_i_glide_ecoul>
-12.8033981323242

> <r_i_glide_erotb>
0.617200434980817

> <r_i_glide_esite>
0

> <r_i_glide_emodel>
-76.2891302344122

> <r_i_glide_energy>
-55.5278625488281

> <r_i_glide_einternal>
9.00675582885742

> <i_i_glide_confnum>
131

> <i_i_glide_posenum>
109

> <r_i_glide_eff_state_penalty>
0

> <s_user_duplicate_titles>
CHEMBL1952_lig438,641299

> <i_f3d_flags>
0

> <s_m_subgroup_title>
dock_pv

> <s_m_subgroupid>
dock_pv

> <b_m_subgroup_collapsed>
1

$$$$
CHEMBL1952_lig150
                    3D
 Schrodinger Suite 2021-1.
 33 35  0  0  1  0            999 V2000
   15.9271   16.2748   32.1635 N   0  0  0  0  0  0
   13.6617   19.0275   33.0281 N   0  0  0  0  0  0
   12.8580   18.9745   31.9082 C   0  0  0  0  0  0
   13.0677   18.0823   30.9944 N   0  0  0  0  0  0
   14.7350   18.2352   33.3370 C   0  0  0  0  0  0
   11.8046   19.9098   31.8062 N   0  0  0  0  0  0
   15.3887   18.4149   34.3541 O   0  0  0  0  0  0
   14.9520   17.2487   32.2875 C   0  0  0  0  0  0
   14.1172   17.2217   31.1745 C   0  0  0  0  0  0
   14.5924   16.1947   30.3583 C   0  0  0  0  0  0
   15.7010   15.6067   30.9670 C   0  0  0  0  0  0
   16.5754   14.4610   30.4996 C   0  0  0  0  0  0
   17.0332   16.0147   33.0992 C   0  0  0  0  0  0
   16.7537   14.9358   34.1457 C   0  0  0  0  0  0
   17.6166   13.8396   34.2626 C   0  0  0  0  0  0
   17.3433   12.8319   35.1850 C   0  0  0  0  0  0
   16.2103   12.9178   35.9897 C   0  0  0  0  0  0
   15.3673   14.0239   35.9092 C   0  0  0  0  0  0
   15.6384   15.0307   34.9865 C   0  0  0  0  0  0
   15.9173   11.9167   36.8479 F   0  0  0  0  0  0
   13.4370   19.7216   33.7370 H   0  0  0  0  0  0
   11.0947   19.8274   31.0869 H   0  0  0  0  0  0
   11.5499   20.4994   32.5839 H   0  0  0  0  0  0
   14.1722   15.9126   29.4065 H   0  0  0  0  0  0
   16.2253   14.0374   29.5576 H   0  0  0  0  0  0
   17.6082   14.7717   30.3427 H   0  0  0  0  0  0
   16.5931   13.6433   31.2219 H   0  0  0  0  0  0
   17.9116   15.7486   32.5084 H   0  0  0  0  0  0
   17.3105   16.9433   33.5947 H   0  0  0  0  0  0
   18.4882   13.7527   33.6291 H   0  0  0  0  0  0
   17.9973   11.9759   35.2642 H   0  0  0  0  0  0
   14.4997   14.0889   36.5458 H   0  0  0  0  0  0
   14.9706   15.8754   34.9270 H   0  0  0  0  0  0
  1 11  1  0  0  0
  1  8  1  0  0  0
  1 13  1  0  0  0
  2  3  1  0  0  0
  2  5  1  0  0  0
  2 21  1  0  0  0
  3  6  1  0  0  0
  3  4  2  0  0  0
  4  9  1  0  0  0
  5  7  2  0  0  0
  5  8  1  0  0  0
  6 22  1  0  0  0
  6 23  1  0  0  0
  8  9  2  0  0  0
  9 10  1  0  0  0
 10 11  2  0  0  0
 10 24  1  0  0  0
 11 12  1  0  0  0
 12 25  1  0  0  0
 12 26  1  0  0  0
 12 27  1  0  0  0
 13 14  1  0  0  0
 13 28  1  0  0  0
 13 29  1  0  0  0
 14 15  2  0  0  0
 14 19  1  0  0  0
 15 16  1  0  0  0
 15 30  1  0  0  0
 16 17  2  0  0  0
 16 31  1  0  0  0
 17 18  1  0  0  0
 17 20  1  0  0  0
 18 19  2  0  0  0
 18 32  1  0  0  0
 19 33  1  0  0  0
M  END
> <s_m_entry_id>
40967

> <s_m_entry_name>
dock_pv.84

> <s_m_Source_Path>
/home/csk/Desktop/cluster/DUD-E-result/tysy

> <s_m_Source_File>
dock_pv.maegz

> <i_m_Source_File_Index>
84

> <chembl_id>
CHEMBL446714

> <chembl_pref_name>
None

> <i_lp_mmshare_version>
53161

> <r_lp_tautomer_probability>
1

> <s_lp_Force_Field>
OPLS_2005

> <r_lp_Energy>
20.110862

> <b_lp_Chiralities_Consistent>
1

> <s_lp_Variant>
CHEMBL1952_lig150-1

> <s_i_glide_gridfile>
glide-grid_1syn

> <i_i_glide_lignum>
327

> <i_i_glide_rotatable_bonds>
2

> <r_i_docking_score>
-8.54448449258744

> <r_i_glide_ligand_efficiency>
-0.427224224629372

> <r_i_glide_ligand_efficiency_sa>
-1.15966496041205

> <r_i_glide_ligand_efficiency_ln>
-2.13840265253497

> <r_i_glide_gscore>
-8.54448449258744

> <r_i_glide_lipo>
-3.22299052493615

> <r_i_glide_hbond>
-0.456

> <r_i_glide_metal>
0

> <r_i_glide_rewards>
-2.63813712482013

> <r_i_glide_evdw>
-36.7396354675293

> <r_i_glide_ecoul>
-5.70398950576782

> <r_i_glide_erotb>
0.483411744311649

> <r_i_glide_esite>
-0.0181883879011716

> <r_i_glide_emodel>
-66.3398875430229

> <r_i_glide_energy>
-42.4436249732971

> <r_i_glide_einternal>
0.216598927974701

> <i_i_glide_confnum>
2

> <i_i_glide_posenum>
33

> <r_i_glide_eff_state_penalty>
0

> <s_user_duplicate_titles>
CHEMBL1952_lig150

> <i_f3d_flags>
0

> <s_m_subgroup_title>
dock_pv

> <s_m_subgroupid>
dock_pv

> <b_m_subgroup_collapsed>
1

$$$$
CHEMBL1952_lig441
                    3D
 Schrodinger Suite 2021-1.
 43 45  0  0  1  0            999 V2000
   16.3141   14.4544   35.0537 N   0  0  0  0  0  0
   16.0594   15.6733   32.9635 C   0  0  0  0  0  0
   17.4660   13.8205   34.6305 C   0  0  0  0  0  0
   17.8286   14.1258   33.3468 N   0  0  0  0  0  0
   15.6133   13.9459   36.2420 C   0  0  2  0  0  0
   17.2294   14.9492   32.4395 C   0  0  0  0  0  0
   15.7215   15.3965   34.2467 C   0  0  0  0  0  0
   15.2509   16.6291   32.1684 C   0  0  0  0  0  0
   15.4834   12.5530   36.2206 O   0  0  0  0  0  0
   13.4109    8.5462   35.7385 P   0  0  0  0  0  0
   14.1805   14.4182   36.4980 C   0  0  0  0  0  0
   14.4079   12.0969   37.0392 C   0  0  1  0  0  0
   14.9782   16.3902   30.8510 C   0  0  0  0  0  0
   14.6744   17.8302   32.8640 C   0  0  0  0  0  0
   13.6415   13.3650   37.4443 C   0  0  1  0  0  0
   13.6534   18.5163   32.0602 C   0  0  0  0  0  0
   13.5727   11.1266   36.1922 C   0  0  0  0  0  0
   14.1025   17.2043   29.9968 C   0  0  0  0  0  0
   13.3913   18.2281   30.7644 C   0  0  0  0  0  0
   18.1323   13.0097   35.2702 O   0  0  0  0  0  0
   14.2539    9.9024   36.0378 O   0  0  0  0  0  0
   17.6703   15.0280   31.2953 O   0  0  0  0  0  0
   14.2124    7.4282   35.1910 O   0  0  0  0  0  0
   14.9918   18.2308   33.9849 O   0  0  0  0  0  0
   13.9612   17.0277   28.7912 O   0  0  0  0  0  0
   12.6694    8.2416   37.1447 O   0  0  0  0  0  0
   12.1909    9.0282   34.7911 O   0  0  0  0  0  0
   13.7920   13.7376   38.7970 O   0  0  0  0  0  0
   18.6419   13.6360   33.0020 H   0  0  0  0  0  0
   16.2694   14.2289   37.0670 H   0  0  0  0  0  0
   14.8910   15.8901   34.7189 H   0  0  0  0  0  0
   13.6067   14.3888   35.5710 H   0  0  0  0  0  0
   14.1938   15.4279   36.8940 H   0  0  0  0  0  0
   14.7838   11.5743   37.9198 H   0  0  0  0  0  0
   15.3831   15.4989   30.3947 H   0  0  0  0  0  0
   12.5710   13.2445   37.2724 H   0  0  0  0  0  0
   13.0750   19.3019   32.5278 H   0  0  0  0  0  0
   13.3872   11.5201   35.1948 H   0  0  0  0  0  0
   12.6057   10.9597   36.6734 H   0  0  0  0  0  0
   12.6205   18.8008   30.2662 H   0  0  0  0  0  0
   12.0556    8.9380   37.4414 H   0  0  0  0  0  0
   11.7479    8.2928   34.3044 H   0  0  0  0  0  0
   14.7163   13.9696   38.9318 H   0  0  0  0  0  0
  1  3  1  0  0  0
  1  5  1  0  0  0
  1  7  1  0  0  0
  2  7  2  0  0  0
  2  6  1  0  0  0
  2  8  1  0  0  0
  3  4  1  0  0  0
  3 20  2  0  0  0
  4  6  1  0  0  0
  4 29  1  0  0  0
  5  9  1  0  0  0
  5 11  1  0  0  0
  5 30  1  0  0  0
  6 22  2  0  0  0
  7 31  1  0  0  0
  8 13  2  0  0  0
  8 14  1  0  0  0
  9 12  1  0  0  0
 10 21  1  0  0  0
 10 23  2  0  0  0
 10 26  1  0  0  0
 10 27  1  0  0  0
 11 15  1  0  0  0
 11 32  1  0  0  0
 11 33  1  0  0  0
 12 17  1  0  0  0
 12 15  1  0  0  0
 12 34  1  0  0  0
 13 18  1  0  0  0
 13 35  1  0  0  0
 14 16  1  0  0  0
 14 24  2  0  0  0
 15 28  1  0  0  0
 15 36  1  0  0  0
 16 19  2  0  0  0
 16 37  1  0  0  0
 17 21  1  0  0  0
 17 38  1  0  0  0
 17 39  1  0  0  0
 18 25  2  0  0  0
 18 19  1  0  0  0
 19 40  1  0  0  0
 26 41  1  0  0  0
 27 42  1  0  0  0
 28 43  1  0  0  0
M  END
> <s_m_entry_id>
40968

> <s_m_entry_name>
dock_pv.85

> <s_m_Source_Path>
/home/csk/Desktop/cluster/DUD-E-result/tysy

> <s_m_Source_File>
dock_pv.maegz

> <i_m_Source_File_Index>
85

> <chembl_id>
CHEMBL3144392

> <chembl_pref_name>
None

> <i_lp_mmshare_version>
53161

> <r_lp_tautomer_probability>
1

> <s_lp_Force_Field>
OPLS_2005

> <r_lp_Energy>
20.604801

> <b_lp_Chiralities_Consistent>
1

> <s_lp_Variant>
CHEMBL1952_lig441-1

> <s_i_glide_gridfile>
glide-grid_1syn

> <i_i_glide_lignum>
871

> <i_i_glide_rotatable_bonds>
8

> <r_i_docking_score>
-8.53944631326081

> <r_i_glide_ligand_efficiency>
-0.3049802254736

> <r_i_glide_ligand_efficiency_sa>
-0.926099588284637

> <r_i_glide_ligand_efficiency_ln>
-1.97115493813921

> <r_i_glide_gscore>
-8.53944631326081

> <r_i_glide_lipo>
-2.33852047844803

> <r_i_glide_hbond>
-0.304

> <r_i_glide_metal>
0

> <r_i_glide_rewards>
-2.27052679798676

> <r_i_glide_evdw>
-47.4696159362793

> <r_i_glide_ecoul>
-12.1862192153931

> <r_i_glide_erotb>
0.575014642296904

> <r_i_glide_esite>
0

> <r_i_glide_emodel>
-82.0961243237154

> <r_i_glide_energy>
-59.6558351516724

> <r_i_glide_einternal>
11.1107883453369

> <i_i_glide_confnum>
388

> <i_i_glide_posenum>
308

> <r_i_glide_eff_state_penalty>
0

> <s_user_duplicate_titles>
CHEMBL1952_lig441

> <i_f3d_flags>
0

> <s_m_subgroup_title>
dock_pv

> <s_m_subgroupid>
dock_pv

> <b_m_subgroup_collapsed>
1

$$$$
CHEMBL1952_lig249
                    3D
 Schrodinger Suite 2021-1.
 61 63  0  0  1  0            999 V2000
   16.5360   10.9855   35.7347 C   0  0  0  0  0  0
   15.5194   10.1623   36.3484 C   0  0  0  0  0  0
   15.7916    9.0564   36.8165 O   0  0  0  0  0  0
   14.2924   10.7112   36.3911 N   0  0  0  0  0  0
   13.0926   10.1198   36.9911 C   0  0  1  0  0  0
   12.4796   11.1308   38.0026 C   0  0  0  0  0  0
   12.1027    9.6970   35.8824 C   0  0  0  0  0  0
   12.5922    8.6281   35.1911 O   0  0  0  0  0  0
   11.0308   10.2283   35.6851 O   0  0  0  0  0  0
   13.4059   11.4728   39.1921 C   0  0  0  0  0  0
   12.7927   12.5093   40.1349 C   0  0  0  0  0  0
   12.9919   13.7868   39.7008 O   0  0  0  0  0  0
   12.1937   12.2258   41.1720 O   0  0  0  0  0  0
   13.1391   18.1100   31.4273 N   0  0  0  0  0  0
   13.4070   17.5329   30.3212 C   0  0  0  0  0  0
   14.3843   16.5694   30.1496 N   0  0  0  0  0  0
   13.8196   17.8001   32.6094 C   0  0  0  0  0  0
   13.5435   18.2280   33.7260 O   0  0  0  0  0  0
   14.9657   16.8123   32.4628 C   0  0  0  0  0  0
   15.1866   16.1902   31.2297 C   0  0  0  0  0  0
   16.1787   15.2262   31.0967 C   0  0  0  0  0  0
   16.9672   14.8957   32.1997 C   0  0  0  0  0  0
   16.8101   15.5689   33.4234 C   0  0  0  0  0  0
   15.7897   16.5138   33.5520 C   0  0  0  0  0  0
   17.7337   15.3700   34.6288 C   0  0  0  0  0  0
   18.5084   14.1251   34.6572 N   0  0  0  0  0  0
   12.5916   17.8964   29.1080 C   0  0  0  0  0  0
   17.9709   12.8811   34.9319 C   0  0  0  0  0  0
   16.3922   12.7242   35.6477 S   0  0  0  0  0  0
   17.7769   10.5757   35.2472 C   0  0  0  0  0  0
   18.5719   11.6325   34.7916 C   0  0  0  0  0  0
   19.9226   14.3155   34.3359 C   0  0  0  0  0  0
   20.2106   14.3425   32.8305 C   0  0  0  0  0  0
   21.6666   14.5638   32.3875 C   0  0  0  0  0  0
   22.6160   14.2280   33.3802 O   0  0  0  0  0  0
   14.1598   11.6001   35.9327 H   0  0  0  0  0  0
   13.3524    9.2122   37.5406 H   0  0  0  0  0  0
   11.5477   10.7241   38.4018 H   0  0  0  0  0  0
   12.2040   12.0515   37.4831 H   0  0  0  0  0  0
   11.9370    8.2786   34.5710 H   0  0  0  0  0  0
   14.3716   11.8393   38.8414 H   0  0  0  0  0  0
   13.6143   10.5672   39.7625 H   0  0  0  0  0  0
   13.4673   13.8333   38.8679 H   0  0  0  0  0  0
   14.5353   16.1464   29.2495 H   0  0  0  0  0  0
   16.3315   14.7204   30.1553 H   0  0  0  0  0  0
   17.6988   14.1140   32.0804 H   0  0  0  0  0  0
   15.6407   17.0171   34.4983 H   0  0  0  0  0  0
   17.1508   15.4280   35.5486 H   0  0  0  0  0  0
   18.4057   16.2285   34.6586 H   0  0  0  0  0  0
   11.8986   18.7160   29.3093 H   0  0  0  0  0  0
   13.2307   18.2023   28.2797 H   0  0  0  0  0  0
   12.0002   17.0395   28.7913 H   0  0  0  0  0  0
   18.1034    9.5472   35.2159 H   0  0  0  0  0  0
   19.5637   11.4865   34.3911 H   0  0  0  0  0  0
   20.3105   15.2213   34.8003 H   0  0  0  0  0  0
   20.5385   13.5408   34.7911 H   0  0  0  0  0  0
   19.8225   13.4280   32.4074 H   0  0  0  0  0  0
   19.5983   15.0924   32.3503 H   0  0  0  0  0  0
   21.8682   13.9081   31.5390 H   0  0  0  0  0  0
   21.7920   15.5665   31.9910 H   0  0  0  0  0  0
   22.5368   13.2673   33.4900 H   0  0  0  0  0  0
  1  2  1  0  0  0
  1 29  1  0  0  0
  1 30  2  0  0  0
  2  3  2  0  0  0
  2  4  1  0  0  0
  4  5  1  0  0  0
  4 36  1  0  0  0
  5  6  1  0  0  0
  5  7  1  0  0  0
  5 37  1  0  0  0
  6 10  1  0  0  0
  6 38  1  0  0  0
  6 39  1  0  0  0
  7  9  2  0  0  0
  7  8  1  0  0  0
  8 40  1  0  0  0
 10 11  1  0  0  0
 10 41  1  0  0  0
 10 42  1  0  0  0
 11 12  1  0  0  0
 11 13  2  0  0  0
 12 43  1  0  0  0
 14 15  2  0  0  0
 14 17  1  0  0  0
 15 16  1  0  0  0
 15 27  1  0  0  0
 16 20  1  0  0  0
 16 44  1  0  0  0
 17 18  2  0  0  0
 17 19  1  0  0  0
 19 24  1  0  0  0
 19 20  2  0  0  0
 20 21  1  0  0  0
 21 22  2  0  0  0
 21 45  1  0  0  0
 22 23  1  0  0  0
 22 46  1  0  0  0
 23 24  2  0  0  0
 23 25  1  0  0  0
 24 47  1  0  0  0
 25 26  1  0  0  0
 25 48  1  0  0  0
 25 49  1  0  0  0
 26 28  1  0  0  0
 26 32  1  0  0  0
 27 50  1  0  0  0
 27 51  1  0  0  0
 27 52  1  0  0  0
 28 29  1  0  0  0
 28 31  2  0  0  0
 30 31  1  0  0  0
 30 53  1  0  0  0
 31 54  1  0  0  0
 32 33  1  0  0  0
 32 55  1  0  0  0
 32 56  1  0  0  0
 33 34  1  0  0  0
 33 57  1  0  0  0
 33 58  1  0  0  0
 34 35  1  0  0  0
 34 59  1  0  0  0
 34 60  1  0  0  0
 35 61  1  0  0  0
M  END
> <s_m_entry_id>
40969

> <s_m_entry_name>
dock_pv.86

> <s_m_Source_Path>
/home/csk/Desktop/cluster/DUD-E-result/tysy

> <s_m_Source_File>
dock_pv.maegz

> <i_m_Source_File_Index>
86

> <chembl_id>
CHEMBL1095593

> <chembl_pref_name>
None

> <i_lp_mmshare_version>
53161

> <r_lp_tautomer_probability>
0.116051

> <s_lp_Force_Field>
OPLS_2005

> <r_lp_Energy>
9.31665

> <b_lp_Chiralities_Consistent>
1

> <s_lp_Variant>
CHEMBL1952_lig249-2

> <s_i_glide_gridfile>
glide-grid_1syn

> <i_i_glide_lignum>
495

> <i_i_glide_rotatable_bonds>
16

> <r_i_docking_score>
-8.53584600592955

> <r_i_glide_ligand_efficiency>
-0.24388131445513

> <r_i_glide_ligand_efficiency_sa>
-0.797751950453256

> <r_i_glide_ligand_efficiency_ln>
-1.87380764119672

> <r_i_glide_gscore>
-8.53584600592955

> <r_i_glide_lipo>
-3.20890710142647

> <r_i_glide_hbond>
-0.451917940146412

> <r_i_glide_metal>
0

> <r_i_glide_rewards>
-0.722923180304448

> <r_i_glide_evdw>
-55.0543365478516

> <r_i_glide_ecoul>
-16.2019519805908

> <r_i_glide_erotb>
1.05184346064396

> <r_i_glide_esite>
-0.0209316202149719

> <r_i_glide_emodel>
-101.840462103102

> <r_i_glide_energy>
-71.2562885284424

> <r_i_glide_einternal>
15.4146337509155

> <i_i_glide_confnum>
66

> <i_i_glide_posenum>
341

> <r_i_glide_eff_state_penalty>
0

> <s_user_duplicate_titles>
CHEMBL1952_lig249,CHEMBL1952_lig249

> <i_f3d_flags>
0

> <s_m_subgroup_title>
dock_pv

> <s_m_subgroupid>
dock_pv

> <b_m_subgroup_collapsed>
1

$$$$
CHEMBL1952_lig23
                    3D
 Schrodinger Suite 2021-1.
 29 31  0  0  1  0            999 V2000
   14.5917   17.4289   32.0155 C   0  0  0  0  0  0
   14.1173   18.2382   33.1413 C   0  0  0  0  0  0
   13.9819   17.6377   30.8088 C   0  0  0  0  0  0
   13.2537   19.2068   32.7910 N   0  0  0  0  0  0
   15.6748   16.4086   32.1541 C   0  0  0  0  0  0
   12.9920   18.5654   30.6210 N   0  0  0  0  0  0
   12.6941   19.3681   31.5749 C   0  0  0  0  0  0
   15.8311   15.4280   31.1553 C   0  0  0  0  0  0
   16.5920   16.4409   33.2154 C   0  0  0  0  0  0
   17.5843   15.4784   33.3452 C   0  0  0  0  0  0
   17.6799   14.4582   32.4053 C   0  0  0  0  0  0
   16.8433   14.4659   31.2893 C   0  0  0  0  0  0
   14.4199   18.1093   34.3232 O   0  0  0  0  0  0
   14.3866   16.8207   29.5841 C   0  0  0  0  0  0
   14.8426   15.3976   29.9898 C   0  0  0  0  0  0
   11.7920   20.4238   31.4110 N   0  0  0  0  0  0
   18.5920   13.4280   32.6076 N   0  0  0  0  0  0
   18.8196   15.6069   34.7910 Br  0  0  0  0  0  0
   16.5649   17.2196   33.9587 H   0  0  0  0  0  0
   16.9360   13.6819   30.5508 H   0  0  0  0  0  0
   12.9920   19.8136   33.5597 H   0  0  0  0  0  0
   15.1955   17.3502   29.0822 H   0  0  0  0  0  0
   13.5676   16.7678   28.8662 H   0  0  0  0  0  0
   13.9696   14.8252   30.3084 H   0  0  0  0  0  0
   15.2612   14.8699   29.1311 H   0  0  0  0  0  0
   11.1431   20.3767   30.6347 H   0  0  0  0  0  0
   11.4081   20.8780   32.2230 H   0  0  0  0  0  0
   18.9254   12.8818   31.8141 H   0  0  0  0  0  0
   19.2527   13.5563   33.3603 H   0  0  0  0  0  0
  1  2  1  0  0  0
  1  5  1  0  0  0
  1  3  2  0  0  0
  2  4  1  0  0  0
  2 13  2  0  0  0
  3  6  1  0  0  0
  3 14  1  0  0  0
  4  7  1  0  0  0
  4 21  1  0  0  0
  5  8  2  0  0  0
  5  9  1  0  0  0
  6  7  2  0  0  0
  7 16  1  0  0  0
  8 12  1  0  0  0
  8 15  1  0  0  0
  9 10  2  0  0  0
  9 19  1  0  0  0
 10 11  1  0  0  0
 10 18  1  0  0  0
 11 17  1  0  0  0
 11 12  2  0  0  0
 12 20  1  0  0  0
 14 15  1  0  0  0
 14 22  1  0  0  0
 14 23  1  0  0  0
 15 24  1  0  0  0
 15 25  1  0  0  0
 16 26  1  0  0  0
 16 27  1  0  0  0
 17 28  1  0  0  0
 17 29  1  0  0  0
M  END
> <s_m_entry_id>
40970

> <s_m_entry_name>
dock_pv.87

> <s_m_Source_Path>
/home/csk/Desktop/cluster/DUD-E-result/tysy

> <s_m_Source_File>
dock_pv.maegz

> <i_m_Source_File_Index>
87

> <chembl_id>
CHEMBL73591

> <chembl_pref_name>
None

> <i_lp_mmshare_version>
53161

> <r_lp_tautomer_probability>
0.878315377147829

> <s_lp_Force_Field>
OPLS_2005

> <r_lp_Energy>
17.949761

> <b_lp_Chiralities_Consistent>
1

> <s_lp_Variant>
CHEMBL1952_lig23-1

> <s_i_glide_gridfile>
glide-grid_1syn

> <i_i_glide_lignum>
25

> <i_i_glide_rotatable_bonds>
0

> <r_i_docking_score>
-8.52855130816903

> <r_i_glide_ligand_efficiency>
-0.47380840600939

> <r_i_glide_ligand_efficiency_sa>
-1.24172930135659

> <r_i_glide_ligand_efficiency_ln>
-2.1922201370239

> <r_i_glide_gscore>
-8.52855130816903

> <r_i_glide_lipo>
-3.12268915265223

> <r_i_glide_hbond>
-0.513810297707976

> <r_i_glide_metal>
0

> <r_i_glide_rewards>
-1.90736678293884

> <r_i_glide_evdw>
-35.456298828125

> <r_i_glide_ecoul>
-7.14443063735962

> <r_i_glide_erotb>
0

> <r_i_glide_esite>
-0.140205537859782

> <r_i_glide_emodel>
-63.7758603108945

> <r_i_glide_energy>
-42.6007294654846

> <r_i_glide_einternal>
0

> <i_i_glide_confnum>
1

> <i_i_glide_posenum>
145

> <r_i_glide_eff_state_penalty>
0

> <s_user_duplicate_titles>
CHEMBL1952_lig23,CHEMBL1952_lig23,CHEMBL1952_lig23

> <i_f3d_flags>
0

> <s_m_subgroup_title>
dock_pv

> <s_m_subgroupid>
dock_pv

> <b_m_subgroup_collapsed>
1

$$$$
CHEMBL1952_lig149
                    3D
 Schrodinger Suite 2021-1.
 33 35  0  0  1  0            999 V2000
   15.8837   16.3194   32.1577 N   0  0  0  0  0  0
   13.5364   19.0276   32.9277 N   0  0  0  0  0  0
   12.8097   18.9924   31.7587 C   0  0  0  0  0  0
   13.0622   18.0975   30.8609 N   0  0  0  0  0  0
   14.5776   18.2273   33.3031 C   0  0  0  0  0  0
   11.7926   19.9500   31.5909 N   0  0  0  0  0  0
   15.1133   18.3722   34.3909 O   0  0  0  0  0  0
   14.8823   17.2692   32.2480 C   0  0  0  0  0  0
   14.1022   17.2394   31.0938 C   0  0  0  0  0  0
   14.6225   16.2199   30.3005 C   0  0  0  0  0  0
   15.7147   15.6509   30.9525 C   0  0  0  0  0  0
   16.6276   14.5244   30.5109 C   0  0  0  0  0  0
   16.9697   16.0946   33.1249 C   0  0  0  0  0  0
   16.7213   14.9649   34.1180 C   0  0  0  0  0  0
   17.5680   13.8509   34.1271 C   0  0  0  0  0  0
   17.3041   12.7819   34.9801 C   0  0  0  0  0  0
   16.1943   12.8281   35.8233 C   0  0  0  0  0  0
   15.3828   13.9600   35.8632 C   0  0  0  0  0  0
   15.6460   15.0279   35.0101 C   0  0  0  0  0  0
   15.7921   11.4561   36.7903 Cl  0  0  0  0  0  0
   13.2890   19.7179   33.6316 H   0  0  0  0  0  0
   11.0938   19.8297   30.8632 H   0  0  0  0  0  0
   11.4685   20.4976   32.3723 H   0  0  0  0  0  0
   14.2454   15.9325   29.3309 H   0  0  0  0  0  0
   16.3045   14.0853   29.5663 H   0  0  0  0  0  0
   17.6536   14.8623   30.3666 H   0  0  0  0  0  0
   16.6552   13.7122   31.2382 H   0  0  0  0  0  0
   17.8839   15.9048   32.5621 H   0  0  0  0  0  0
   17.1617   17.0207   33.6653 H   0  0  0  0  0  0
   18.4117   13.7900   33.4525 H   0  0  0  0  0  0
   17.9376   11.9075   34.9591 H   0  0  0  0  0  0
   14.5346   13.9994   36.5301 H   0  0  0  0  0  0
   14.9945   15.8886   35.0294 H   0  0  0  0  0  0
  1 11  1  0  0  0
  1  8  1  0  0  0
  1 13  1  0  0  0
  2  3  1  0  0  0
  2  5  1  0  0  0
  2 21  1  0  0  0
  3  6  1  0  0  0
  3  4  2  0  0  0
  4  9  1  0  0  0
  5  7  2  0  0  0
  5  8  1  0  0  0
  6 22  1  0  0  0
  6 23  1  0  0  0
  8  9  2  0  0  0
  9 10  1  0  0  0
 10 11  2  0  0  0
 10 24  1  0  0  0
 11 12  1  0  0  0
 12 25  1  0  0  0
 12 26  1  0  0  0
 12 27  1  0  0  0
 13 14  1  0  0  0
 13 28  1  0  0  0
 13 29  1  0  0  0
 14 15  2  0  0  0
 14 19  1  0  0  0
 15 16  1  0  0  0
 15 30  1  0  0  0
 16 17  2  0  0  0
 16 31  1  0  0  0
 17 18  1  0  0  0
 17 20  1  0  0  0
 18 19  2  0  0  0
 18 32  1  0  0  0
 19 33  1  0  0  0
M  END
> <s_m_entry_id>
40971

> <s_m_entry_name>
dock_pv.88

> <s_m_Source_Path>
/home/csk/Desktop/cluster/DUD-E-result/tysy

> <s_m_Source_File>
dock_pv.maegz

> <i_m_Source_File_Index>
88

> <chembl_id>
CHEMBL252134

> <chembl_pref_name>
None

> <i_lp_mmshare_version>
53161

> <r_lp_tautomer_probability>
1

> <s_lp_Force_Field>
OPLS_2005

> <r_lp_Energy>
20.091088

> <b_lp_Chiralities_Consistent>
1

> <s_lp_Variant>
CHEMBL1952_lig149-1

> <s_i_glide_gridfile>
glide-grid_1syn

> <i_i_glide_lignum>
326

> <i_i_glide_rotatable_bonds>
2

> <r_i_docking_score>
-8.52577246376894

> <r_i_glide_ligand_efficiency>
-0.426288623188447

> <r_i_glide_ligand_efficiency_sa>
-1.15712534738123

> <r_i_glide_ligand_efficiency_ln>
-2.13371964888572

> <r_i_glide_gscore>
-8.52577246376894

> <r_i_glide_lipo>
-3.34140128868059

> <r_i_glide_hbond>
-0.456

> <r_i_glide_metal>
0

> <r_i_glide_rewards>
-2.33265031474926

> <r_i_glide_evdw>
-38.9585380554199

> <r_i_glide_ecoul>
-5.79320001602173

> <r_i_glide_erotb>
0.436567174340438

> <r_i_glide_esite>
-0.0153811295052777

> <r_i_glide_emodel>
-68.3051960881454

> <r_i_glide_energy>
-44.7517380714417

> <r_i_glide_einternal>
0.893519878387451

> <i_i_glide_confnum>
3

> <i_i_glide_posenum>
76

> <r_i_glide_eff_state_penalty>
0

> <s_user_duplicate_titles>
CHEMBL1952_lig149

> <i_f3d_flags>
0

> <s_m_subgroup_title>
dock_pv

> <s_m_subgroupid>
dock_pv

> <b_m_subgroup_collapsed>
1

$$$$
CHEMBL1952_lig350
                    3D
 Schrodinger Suite 2021-1.
 55 58  0  0  1  0            999 V2000
   13.9982    7.5411   36.0260 C   0  0  0  0  0  0
   14.0133    8.5018   37.1939 C   0  0  0  0  0  0
   13.7563    6.2623   36.4142 N   0  0  0  0  0  0
   13.5842    6.6068   38.6893 N   0  0  0  0  0  0
   15.8641   17.1679   33.4349 S   0  0  1  0  0  0
   13.7943    7.9754   38.4725 C   0  0  0  0  0  0
   13.5531    5.8104   37.6881 C   0  0  0  0  0  0
   15.4495   16.4787   31.7909 C   0  0  0  0  0  0
   13.6273   12.8634   37.0251 N   0  0  0  0  0  0
   11.3204   12.2425   36.3994 C   0  0  0  0  0  0
   15.1876   15.8499   34.4664 C   0  0  0  0  0  0
   10.5878   11.6956   35.5900 C   0  0  0  0  0  0
   14.2385    9.8711   37.0173 C   0  0  0  0  0  0
   14.1529   13.8547   36.1404 C   0  0  0  0  0  0
   14.1916    7.8279   34.8463 O   0  0  0  0  0  0
   17.3798   17.0280   33.5909 O   0  0  0  0  0  0
   14.5189   12.2056   37.9937 C   0  0  0  0  0  0
   14.2375   10.7135   38.1381 C   0  0  0  0  0  0
   14.4196   17.0267   31.0072 C   0  0  0  0  0  0
   13.7983    8.8132   39.5821 C   0  0  0  0  0  0
   16.0272   14.8508   34.9472 C   0  0  0  0  0  0
   13.8416   15.8672   34.7911 C   0  0  0  0  0  0
   15.5106   13.8610   35.7746 C   0  0  0  0  0  0
   13.3281   14.8555   35.5917 C   0  0  0  0  0  0
   12.2018   12.8685   37.4016 C   0  0  0  0  0  0
   14.0176   10.1796   39.4144 C   0  0  0  0  0  0
   13.3236    4.3327   37.8940 C   0  0  0  0  0  0
   16.2259   15.4281   31.2930 C   0  0  0  0  0  0
   13.5638   18.1838   31.5046 C   0  0  0  0  0  0
   14.1935   16.5139   29.7245 C   0  0  0  0  0  0
   15.9912   14.9271   30.0130 C   0  0  0  0  0  0
   14.9763   15.4706   29.2285 C   0  0  0  0  0  0
    9.9617   11.2150   34.8714 H   0  0  0  0  0  0
   14.4080   10.2861   36.0313 H   0  0  0  0  0  0
   13.7250    5.5845   35.6672 H   0  0  0  0  0  0
   14.3868   12.7057   38.9547 H   0  0  0  0  0  0
   15.5784   12.3096   37.7832 H   0  0  0  0  0  0
   13.6276    8.3986   40.5636 H   0  0  0  0  0  0
   17.0754   14.8386   34.6857 H   0  0  0  0  0  0
   13.1911   16.6441   34.4166 H   0  0  0  0  0  0
   16.2014   13.0997   36.0938 H   0  0  0  0  0  0
   12.2725   14.8929   35.8047 H   0  0  0  0  0  0
   12.0464   12.3058   38.3232 H   0  0  0  0  0  0
   11.8488   13.8748   37.6308 H   0  0  0  0  0  0
   14.0208   10.8228   40.2821 H   0  0  0  0  0  0
   14.2454    3.7763   37.7306 H   0  0  0  0  0  0
   12.9735    4.1131   38.9031 H   0  0  0  0  0  0
   12.5814    3.9532   37.1922 H   0  0  0  0  0  0
   17.0273   15.0156   31.8900 H   0  0  0  0  0  0
   12.8656   18.5387   30.7453 H   0  0  0  0  0  0
   12.9924   17.8851   32.3830 H   0  0  0  0  0  0
   14.1913   19.0266   31.7941 H   0  0  0  0  0  0
   13.4171   16.9335   29.1006 H   0  0  0  0  0  0
   16.5976   14.1194   29.6281 H   0  0  0  0  0  0
   14.7982   15.0846   28.2351 H   0  0  0  0  0  0
  1 15  2  0  0  0
  1  2  1  0  0  0
  1  3  1  0  0  0
  2 13  1  0  0  0
  2  6  2  0  0  0
  3  7  1  0  0  0
  3 35  1  0  0  0
  4  6  1  0  0  0
  4  7  2  0  0  0
  5 11  1  0  0  0
  5  8  1  0  0  0
  5 16  2  0  0  0
  6 20  1  0  0  0
  7 27  1  0  0  0
  8 19  2  0  0  0
  8 28  1  0  0  0
  9 17  1  0  0  0
  9 14  1  0  0  0
  9 25  1  0  0  0
 10 25  1  0  0  0
 10 12  3  0  0  0
 11 22  2  0  0  0
 11 21  1  0  0  0
 12 33  1  0  0  0
 13 34  1  0  0  0
 13 18  2  0  0  0
 14 23  1  0  0  0
 14 24  2  0  0  0
 17 36  1  0  0  0
 17 37  1  0  0  0
 17 18  1  0  0  0
 18 26  1  0  0  0
 19 29  1  0  0  0
 19 30  1  0  0  0
 20 26  2  0  0  0
 20 38  1  0  0  0
 21 23  2  0  0  0
 21 39  1  0  0  0
 22 24  1  0  0  0
 22 40  1  0  0  0
 23 41  1  0  0  0
 24 42  1  0  0  0
 25 43  1  0  0  0
 25 44  1  0  0  0
 26 45  1  0  0  0
 27 46  1  0  0  0
 27 47  1  0  0  0
 27 48  1  0  0  0
 28 31  2  0  0  0
 28 49  1  0  0  0
 29 50  1  0  0  0
 29 51  1  0  0  0
 29 52  1  0  0  0
 30 32  2  0  0  0
 30 53  1  0  0  0
 31 32  1  0  0  0
 31 54  1  0  0  0
 32 55  1  0  0  0
M  END
> <s_m_entry_id>
40972

> <s_m_entry_name>
dock_pv.89

> <s_m_Source_Path>
/home/csk/Desktop/cluster/DUD-E-result/tysy

> <s_m_Source_File>
dock_pv.maegz

> <i_m_Source_File_Index>
89

> <chembl_id>
CHEMBL159209

> <chembl_pref_name>
None

> <i_lp_mmshare_version>
53161

> <r_lp_tautomer_probability>
0.883938

> <s_lp_Force_Field>
OPLS_2005

> <r_lp_Energy>
26.195724

> <b_lp_Chiralities_Consistent>
1

> <s_lp_Variant>
CHEMBL1952_lig350-1

> <s_i_glide_gridfile>
glide-grid_1syn

> <i_i_glide_lignum>
645

> <i_i_glide_rotatable_bonds>
7

> <r_i_docking_score>
-8.52528666958934

> <r_i_glide_ligand_efficiency>
-0.266415208424667

> <r_i_glide_ligand_efficiency_sa>
-0.845815563250162

> <r_i_glide_ligand_efficiency_ln>
-1.9090440758587

> <r_i_glide_gscore>
-8.52528666958934

> <r_i_glide_lipo>
-4.0344246445331

> <r_i_glide_hbond>
-0.492704792625392

> <r_i_glide_metal>
0

> <r_i_glide_rewards>
-1.22036655132586

> <r_i_glide_evdw>
-44.1926307678223

> <r_i_glide_ecoul>
-8.40915012359619

> <r_i_glide_erotb>
0.717221528578715

> <r_i_glide_esite>
-0.0240081527531582

> <r_i_glide_emodel>
-81.2982071217342

> <r_i_glide_energy>
-52.6017808914185

> <r_i_glide_einternal>
3.06568908691406

> <i_i_glide_confnum>
37

> <i_i_glide_posenum>
315

> <r_i_glide_eff_state_penalty>
0

> <s_user_duplicate_titles>
CHEMBL1952_lig350,CHEMBL1952_lig350,266920

> <i_f3d_flags>
0

> <s_m_subgroup_title>
dock_pv

> <s_m_subgroupid>
dock_pv

> <b_m_subgroup_collapsed>
1

$$$$
CHEMBL1952_lig154
                    3D
 Schrodinger Suite 2021-1.
 30 32  0  0  1  0            999 V2000
   13.4723   19.0280   32.9375 N   0  0  0  0  0  0
   12.7643   19.0229   31.7649 C   0  0  0  0  0  0
   12.9918   18.1245   30.8690 N   0  0  0  0  0  0
   14.4933   18.2085   33.3086 C   0  0  0  0  0  0
   14.7761   17.2034   32.2810 C   0  0  0  0  0  0
   13.9903   17.2263   31.1289 C   0  0  0  0  0  0
   14.4459   15.9896   30.0146 S   0  0  0  0  0  0
   15.7314   15.4387   31.0633 C   0  0  0  0  0  0
   15.7606   16.1906   32.2493 C   0  0  0  0  0  0
   16.6374   14.3132   30.6157 C   0  0  0  0  0  0
   17.0282   15.9859   33.4731 S   0  0  0  0  0  0
   11.7921   20.0185   31.5913 N   0  0  0  0  0  0
   15.0277   18.3865   34.3911 O   0  0  0  0  0  0
   16.3370   14.8251   34.6141 C   0  0  0  0  0  0
   15.0805   15.0322   35.1881 C   0  0  0  0  0  0
   14.5765   14.1085   36.0997 C   0  0  0  0  0  0
   15.3314   12.9860   36.4342 C   0  0  0  0  0  0
   16.5916   12.7841   35.8752 C   0  0  0  0  0  0
   17.0985   13.7105   34.9681 C   0  0  0  0  0  0
   13.2506   19.7251   33.6459 H   0  0  0  0  0  0
   17.0600   13.7656   31.4588 H   0  0  0  0  0  0
   16.1206   13.5803   29.9949 H   0  0  0  0  0  0
   17.4755   14.6904   30.0304 H   0  0  0  0  0  0
   11.0922   19.8760   30.8695 H   0  0  0  0  0  0
   11.4015   20.4572   32.4101 H   0  0  0  0  0  0
   14.4945   15.9019   34.9400 H   0  0  0  0  0  0
   13.6048   14.2639   36.5452 H   0  0  0  0  0  0
   14.9416   12.2716   37.1438 H   0  0  0  0  0  0
   17.1772   11.9192   36.1497 H   0  0  0  0  0  0
   18.0771   13.5584   34.5350 H   0  0  0  0  0  0
  1  4  1  0  0  0
  1  2  1  0  0  0
  1 20  1  0  0  0
  2 12  1  0  0  0
  2  3  2  0  0  0
  3  6  1  0  0  0
  4 13  2  0  0  0
  4  5  1  0  0  0
  5  9  1  0  0  0
  5  6  2  0  0  0
  6  7  1  0  0  0
  7  8  1  0  0  0
  8 10  1  0  0  0
  8  9  2  0  0  0
  9 11  1  0  0  0
 10 21  1  0  0  0
 10 22  1  0  0  0
 10 23  1  0  0  0
 11 14  1  0  0  0
 12 24  1  0  0  0
 12 25  1  0  0  0
 14 15  2  0  0  0
 14 19  1  0  0  0
 15 16  1  0  0  0
 15 26  1  0  0  0
 16 17  2  0  0  0
 16 27  1  0  0  0
 17 18  1  0  0  0
 17 28  1  0  0  0
 18 19  2  0  0  0
 18 29  1  0  0  0
 19 30  1  0  0  0
M  END
> <s_m_entry_id>
40974

> <s_m_entry_name>
dock_pv.91

> <s_m_Source_Path>
/home/csk/Desktop/cluster/DUD-E-result/tysy

> <s_m_Source_File>
dock_pv.maegz

> <i_m_Source_File_Index>
91

> <chembl_id>
CHEMBL494067

> <chembl_pref_name>
None

> <i_lp_mmshare_version>
53161

> <r_lp_tautomer_probability>
1

> <s_lp_Force_Field>
OPLS_2005

> <r_lp_Energy>
16.271095

> <b_lp_Chiralities_Consistent>
1

> <s_lp_Variant>
CHEMBL1952_lig154-1

> <s_i_glide_gridfile>
glide-grid_1syn

> <i_i_glide_lignum>
331

> <i_i_glide_rotatable_bonds>
2

> <r_i_docking_score>
-8.50841239144089

> <r_i_glide_ligand_efficiency>
-0.447811178496889

> <r_i_glide_ligand_efficiency_sa>
-1.19494008584441

> <r_i_glide_ligand_efficiency_ln>
-2.15706528517243

> <r_i_glide_gscore>
-8.50841239144089

> <r_i_glide_lipo>
-3.63058353193501

> <r_i_glide_hbond>
-0.456

> <r_i_glide_metal>
0

> <r_i_glide_rewards>
-1.87882043591858

> <r_i_glide_evdw>
-40.6976280212402

> <r_i_glide_ecoul>
-6.16997385025024

> <r_i_glide_erotb>
0.434869867597129

> <r_i_glide_esite>
-0.0175008125848778

> <r_i_glide_emodel>
-71.4449865480759

> <r_i_glide_energy>
-46.8676018714905

> <r_i_glide_einternal>
0.606555104255676

> <i_i_glide_confnum>
8

> <i_i_glide_posenum>
318

> <r_i_glide_eff_state_penalty>
0

> <s_user_duplicate_titles>
CHEMBL1952_lig154

> <i_f3d_flags>
0

> <s_m_subgroup_title>
dock_pv

> <s_m_subgroupid>
dock_pv

> <b_m_subgroup_collapsed>
1

$$$$
CHEMBL1952_lig193
                    3D
 Schrodinger Suite 2021-1.
 60 62  0  0  1  0            999 V2000
   13.7089   17.8589   31.1325 N   0  0  0  0  0  0
   14.0616   17.2587   29.9548 C   0  0  0  0  0  0
   14.9564   16.3361   29.9239 N   0  0  0  0  0  0
   14.2322   17.6325   32.3592 C   0  0  0  0  0  0
   13.3461   17.6920   28.6919 C   0  0  0  0  0  0
   13.8325   18.2282   33.3522 O   0  0  0  0  0  0
   15.3281   16.5962   32.3307 C   0  0  0  0  0  0
   15.6253   15.9829   31.1066 C   0  0  0  0  0  0
   16.6365   15.0280   31.0429 C   0  0  0  0  0  0
   17.3741   14.7226   32.1898 C   0  0  0  0  0  0
   17.0783   15.3456   33.4147 C   0  0  0  0  0  0
   16.0336   16.2710   33.4876 C   0  0  0  0  0  0
   17.9215   15.0896   34.6608 C   0  0  0  0  0  0
   18.2603   13.6708   34.8511 N   0  0  0  0  0  0
   17.2686   12.7866   35.3679 C   0  0  0  0  0  0
   16.0584   13.2843   35.8819 C   0  0  0  0  0  0
   15.0887   12.4440   36.3979 C   0  0  0  0  0  0
   15.2825   11.0587   36.4105 C   0  0  0  0  0  0
   16.4850   10.5434   35.9129 C   0  0  0  0  0  0
   17.4640   11.3955   35.4030 C   0  0  0  0  0  0
   14.2160   10.1317   36.9443 C   0  0  0  0  0  0
   14.4830    8.9725   37.2714 O   0  0  0  0  0  0
   12.9782   10.6580   37.0104 N   0  0  0  0  0  0
   11.7484    9.9794   37.4302 C   0  0  1  0  0  0
   10.8574   10.9886   38.2152 C   0  0  0  0  0  0
   11.0086    9.2288   36.2876 C   0  0  0  0  0  0
   11.8019    9.0282   35.1922 O   0  0  0  0  0  0
    9.8656    8.8387   36.3904 O   0  0  0  0  0  0
   10.3695   12.2373   37.4360 C   0  0  0  0  0  0
    9.6800   13.2836   38.3238 C   0  0  0  0  0  0
    9.0238   14.2266   37.5911 O   0  0  0  0  0  0
    9.7316   13.2976   39.5534 O   0  0  0  0  0  0
   19.5635   13.1622   34.3912 C   0  0  0  0  0  0
   13.3863   19.0204   28.5578 F   0  0  0  0  0  0
   20.6733   14.2277   34.2546 C   0  0  0  0  0  0
   13.0139   18.5896   31.1194 H   0  0  0  0  0  0
   13.7916   17.2618   27.7949 H   0  0  0  0  0  0
   12.2967   17.4067   28.7464 H   0  0  0  0  0  0
   16.8736   14.5505   30.1030 H   0  0  0  0  0  0
   18.1851   14.0113   32.1130 H   0  0  0  0  0  0
   15.7928   16.7555   34.4250 H   0  0  0  0  0  0
   17.4336   15.4281   35.5683 H   0  0  0  0  0  0
   18.7934   15.7352   34.5903 H   0  0  0  0  0  0
   15.8180   14.3334   35.8999 H   0  0  0  0  0  0
   14.1895   12.9005   36.7835 H   0  0  0  0  0  0
   16.6651    9.4772   35.9011 H   0  0  0  0  0  0
   18.3645   10.9451   35.0152 H   0  0  0  0  0  0
   12.8475   11.5882   36.6438 H   0  0  0  0  0  0
   12.0301    9.1936   38.1320 H   0  0  0  0  0  0
   11.4153   11.3140   39.0973 H   0  0  0  0  0  0
    9.9896   10.4626   38.6152 H   0  0  0  0  0  0
   11.3913    8.4177   34.5602 H   0  0  0  0  0  0
    9.6782   11.9356   36.6489 H   0  0  0  0  0  0
   11.2032   12.7354   36.9423 H   0  0  0  0  0  0
    8.5960   14.9050   38.1304 H   0  0  0  0  0  0
   19.9276   12.3962   35.0755 H   0  0  0  0  0  0
   19.3920   12.6596   33.4360 H   0  0  0  0  0  0
   21.6470   13.8210   34.0036 H   0  0  0  0  0  0
   20.4381   14.9311   33.4535 H   0  0  0  0  0  0
   20.7999   14.7787   35.1884 H   0  0  0  0  0  0
  1  2  1  0  0  0
  1  4  1  0  0  0
  1 36  1  0  0  0
  2  5  1  0  0  0
  2  3  2  0  0  0
  3  8  1  0  0  0
  4  7  1  0  0  0
  4  6  2  0  0  0
  5 34  1  0  0  0
  5 37  1  0  0  0
  5 38  1  0  0  0
  7 12  1  0  0  0
  7  8  2  0  0  0
  8  9  1  0  0  0
  9 10  2  0  0  0
  9 39  1  0  0  0
 10 11  1  0  0  0
 10 40  1  0  0  0
 11 12  2  0  0  0
 11 13  1  0  0  0
 12 41  1  0  0  0
 13 14  1  0  0  0
 13 42  1  0  0  0
 13 43  1  0  0  0
 14 15  1  0  0  0
 14 33  1  0  0  0
 15 20  1  0  0  0
 15 16  2  0  0  0
 16 17  1  0  0  0
 16 44  1  0  0  0
 17 18  2  0  0  0
 17 45  1  0  0  0
 18 19  1  0  0  0
 18 21  1  0  0  0
 19 20  2  0  0  0
 19 46  1  0  0  0
 20 47  1  0  0  0
 21 22  2  0  0  0
 21 23  1  0  0  0
 23 24  1  0  0  0
 23 48  1  0  0  0
 24 25  1  0  0  0
 24 26  1  0  0  0
 24 49  1  0  0  0
 25 29  1  0  0  0
 25 50  1  0  0  0
 25 51  1  0  0  0
 26 27  1  0  0  0
 26 28  2  0  0  0
 27 52  1  0  0  0
 29 30  1  0  0  0
 29 53  1  0  0  0
 29 54  1  0  0  0
 30 31  1  0  0  0
 30 32  2  0  0  0
 31 55  1  0  0  0
 33 35  1  0  0  0
 33 56  1  0  0  0
 33 57  1  0  0  0
 35 58  1  0  0  0
 35 59  1  0  0  0
 35 60  1  0  0  0
M  END
> <s_m_entry_id>
40975

> <s_m_entry_name>
dock_pv.92

> <s_m_Source_Path>
/home/csk/Desktop/cluster/DUD-E-result/tysy

> <s_m_Source_File>
dock_pv.maegz

> <i_m_Source_File_Index>
92

> <chembl_id>
CHEMBL103029

> <chembl_pref_name>
None

> <i_lp_mmshare_version>
53161

> <r_lp_tautomer_probability>
0.883938

> <s_lp_Force_Field>
OPLS_2005

> <r_lp_Energy>
26.577576

> <b_lp_Chiralities_Consistent>
1

> <s_lp_Variant>
CHEMBL1952_lig193-1

> <s_i_glide_gridfile>
glide-grid_1syn

> <i_i_glide_lignum>
383

> <i_i_glide_rotatable_bonds>
14

> <r_i_docking_score>
-8.50475719141134

> <r_i_glide_ligand_efficiency>
-0.242993062611753

> <r_i_glide_ligand_efficiency_sa>
-0.794846419776865

> <r_i_glide_ligand_efficiency_ln>
-1.86698295643091

> <r_i_glide_gscore>
-8.50475719141134

> <r_i_glide_lipo>
-3.643352459883

> <r_i_glide_hbond>
0

> <r_i_glide_metal>
0

> <r_i_glide_rewards>
-1.18198679973337

> <r_i_glide_evdw>
-53.7206954956055

> <r_i_glide_ecoul>
-12.3378896713257

> <r_i_glide_erotb>
0.865218214171338

> <r_i_glide_esite>
-0.00791792048718381

> <r_i_glide_emodel>
-95.5228651413873

> <r_i_glide_energy>
-66.0585851669312

> <r_i_glide_einternal>
7.75472545623779

> <i_i_glide_confnum>
21

> <i_i_glide_posenum>
90

> <r_i_glide_eff_state_penalty>
0

> <s_user_duplicate_titles>
CHEMBL1952_lig193,CHEMBL1952_lig193,170307

> <i_f3d_flags>
0

> <s_m_subgroup_title>
dock_pv

> <s_m_subgroupid>
dock_pv

> <b_m_subgroup_collapsed>
1

$$$$
CHEMBL1952_lig90
                    3D
 Schrodinger Suite 2021-1.
 50 52  0  0  1  0            999 V2000
   15.5894   16.2325   32.3136 C   0  0  0  0  0  0
   15.2864   15.9650   30.9514 C   0  0  0  0  0  0
   14.3148   16.5294   30.2336 N   0  0  0  0  0  0
   16.7456   15.4352   32.6546 C   0  0  0  0  0  0
   14.7472   17.1735   32.9429 C   0  0  0  0  0  0
   13.7480   17.7660   32.2411 N   0  0  0  0  0  0
   13.5962   17.4297   30.9419 C   0  0  0  0  0  0
   16.1884   15.0329   30.5080 N   0  0  0  0  0  0
   17.0647   14.7133   31.5158 C   0  0  0  0  0  0
   14.8955   10.9489   37.1648 C   0  0  0  0  0  0
   15.0079    9.7167   36.6400 N   0  0  0  0  0  0
   17.6729   15.4281   34.1504 S   0  0  0  0  0  0
   13.4410    8.1511   35.7015 C   0  0  0  0  0  0
   14.1856    8.5489   36.9842 C   0  0  1  0  0  0
   14.9916   17.4295   34.2603 O   0  0  0  0  0  0
   15.6365   12.0504   36.4357 C   0  0  0  0  0  0
   15.3637    5.0161   38.3799 C   0  0  0  0  0  0
   14.1786   11.1982   38.1370 O   0  0  0  0  0  0
   13.9305    8.2279   34.5935 O   0  0  0  0  0  0
   12.5914   18.0817   30.2551 N   0  0  0  0  0  0
   16.0743    5.1560   39.3749 O   0  0  0  0  0  0
   15.0900    7.3947   37.4752 C   0  0  0  0  0  0
   16.8859   14.1210   35.0318 C   0  0  0  0  0  0
   15.1914   13.3732   36.5699 C   0  0  0  0  0  0
   16.7405   11.7855   35.6042 C   0  0  0  0  0  0
   14.3764    6.0844   37.8928 C   0  0  0  0  0  0
   12.1979    7.6803   35.9910 O   0  0  0  0  0  0
   15.3908    3.9002   37.5917 O   0  0  0  0  0  0
   17.3662   12.8190   34.9094 C   0  0  0  0  0  0
   15.8133   14.4039   35.8732 C   0  0  0  0  0  0
   18.1719   13.7315   31.2600 C   0  0  0  0  0  0
   16.2442   14.6230   29.5875 H   0  0  0  0  0  0
   15.5346    9.6195   35.7843 H   0  0  0  0  0  0
   13.4618    8.8129   37.7588 H   0  0  0  0  0  0
   15.7587   16.9353   34.5584 H   0  0  0  0  0  0
   12.0521   18.7828   30.7395 H   0  0  0  0  0  0
   12.4816   17.9109   29.2698 H   0  0  0  0  0  0
   15.6906    7.7494   38.3161 H   0  0  0  0  0  0
   15.7920    7.1659   36.6723 H   0  0  0  0  0  0
   14.3519   13.6140   37.2081 H   0  0  0  0  0  0
   17.1329   10.7858   35.4848 H   0  0  0  0  0  0
   13.7848    5.6836   37.0704 H   0  0  0  0  0  0
   13.6749    6.2889   38.7013 H   0  0  0  0  0  0
   11.7884    7.4279   35.1450 H   0  0  0  0  0  0
   14.7666    3.8917   36.8549 H   0  0  0  0  0  0
   18.2119   12.6080   34.2692 H   0  0  0  0  0  0
   15.4590   15.4168   35.9967 H   0  0  0  0  0  0
   18.8737   13.6773   32.0940 H   0  0  0  0  0  0
   17.7917   12.7206   31.0875 H   0  0  0  0  0  0
   18.7562   14.0250   30.3914 H   0  0  0  0  0  0
  1  2  1  0  0  0
  1  4  1  0  0  0
  1  5  2  0  0  0
  2  3  2  0  0  0
  2  8  1  0  0  0
  3  7  1  0  0  0
  4  9  2  0  0  0
  4 12  1  0  0  0
  5  6  1  0  0  0
  5 15  1  0  0  0
  6  7  2  0  0  0
  7 20  1  0  0  0
  8  9  1  0  0  0
  8 32  1  0  0  0
  9 31  1  0  0  0
 10 16  1  0  0  0
 10 11  1  0  0  0
 10 18  2  0  0  0
 11 14  1  0  0  0
 11 33  1  0  0  0
 12 23  1  0  0  0
 13 14  1  0  0  0
 13 19  2  0  0  0
 13 27  1  0  0  0
 14 22  1  0  0  0
 14 34  1  0  0  0
 15 35  1  0  0  0
 16 24  1  0  0  0
 16 25  2  0  0  0
 17 26  1  0  0  0
 17 21  2  0  0  0
 17 28  1  0  0  0
 20 36  1  0  0  0
 20 37  1  0  0  0
 22 26  1  0  0  0
 22 38  1  0  0  0
 22 39  1  0  0  0
 23 29  2  0  0  0
 23 30  1  0  0  0
 24 30  2  0  0  0
 24 40  1  0  0  0
 25 29  1  0  0  0
 25 41  1  0  0  0
 26 42  1  0  0  0
 26 43  1  0  0  0
 27 44  1  0  0  0
 28 45  1  0  0  0
 29 46  1  0  0  0
 30 47  1  0  0  0
 31 48  1  0  0  0
 31 49  1  0  0  0
 31 50  1  0  0  0
M  END
> <s_m_entry_id>
40977

> <s_m_entry_name>
dock_pv.94

> <s_m_Source_Path>
/home/csk/Desktop/cluster/DUD-E-result/tysy

> <s_m_Source_File>
dock_pv.maegz

> <i_m_Source_File_Index>
94

> <chembl_id>
CHEMBL306149

> <chembl_pref_name>
None

> <i_lp_mmshare_version>
53161

> <r_lp_tautomer_probability>
1

> <s_lp_Force_Field>
OPLS_2005

> <r_lp_Energy>
1.071985

> <b_lp_Chiralities_Consistent>
1

> <s_lp_Variant>
CHEMBL1952_lig90-1

> <s_i_glide_gridfile>
glide-grid_1syn

> <i_i_glide_lignum>
159

> <i_i_glide_rotatable_bonds>
12

> <r_i_docking_score>
-8.50098597380758

> <r_i_glide_ligand_efficiency>
-0.274225353993793

> <r_i_glide_ligand_efficiency_sa>
-0.861446220445216

> <r_i_glide_ligand_efficiency_ln>
-1.91723286102596

> <r_i_glide_gscore>
-8.50098597380758

> <r_i_glide_lipo>
-2.96362920702034

> <r_i_glide_hbond>
-0.389342583888394

> <r_i_glide_metal>
0

> <r_i_glide_rewards>
-1.31466372607137

> <r_i_glide_evdw>
-51.3880805969238

> <r_i_glide_ecoul>
-14.4500961303711

> <r_i_glide_erotb>
0.907516600872917

> <r_i_glide_esite>
-0.00394860829853797

> <r_i_glide_emodel>
-96.5946874521475

> <r_i_glide_energy>
-65.8381767272949

> <r_i_glide_einternal>
4.98486709594727

> <i_i_glide_confnum>
385

> <i_i_glide_posenum>
237

> <r_i_glide_eff_state_penalty>
0

> <s_user_duplicate_titles>
CHEMBL1952_lig90,118067

> <i_f3d_flags>
0

> <s_m_subgroup_title>
dock_pv

> <s_m_subgroupid>
dock_pv

> <b_m_subgroup_collapsed>
1

$$$$
CHEMBL1952_lig95
                    3D
 Schrodinger Suite 2021-1.
 53 55  0  0  1  0            999 V2000
   13.3204   18.3696   31.9618 N   0  0  0  0  0  0
   14.3380   18.0196   32.7780 C   0  0  0  0  0  0
   15.2745   17.0063   32.4083 C   0  0  0  0  0  0
   13.2265   17.7273   30.7810 C   0  0  0  0  0  0
   14.0357   16.7431   30.3289 N   0  0  0  0  0  0
   15.0630   16.3756   31.1457 C   0  0  0  0  0  0
   15.3593   10.3733   36.8442 C   0  0  0  0  0  0
   14.0545   10.6542   36.6898 N   0  0  0  0  0  0
   11.9452    9.4311   36.2549 C   0  0  0  0  0  0
   12.9247    9.9744   37.3251 C   0  0  2  0  0  0
   16.3866   16.6076   33.1918 C   0  0  0  0  0  0
   16.2839   11.3208   36.1282 C   0  0  0  0  0  0
   12.5675   12.6224   40.2425 C   0  0  0  0  0  0
   14.5156   18.6279   33.9927 O   0  0  0  0  0  0
   15.7919    9.4283   37.5089 O   0  0  0  0  0  0
   10.7563    9.6683   36.2417 O   0  0  0  0  0  0
   15.9532   15.3566   30.7274 C   0  0  0  0  0  0
   18.7056   13.8278   33.7885 N   0  0  0  0  0  0
   12.1920   18.1213   29.9514 N   0  0  0  0  0  0
   11.7944   12.4990   41.1909 O   0  0  0  0  0  0
   12.2549   10.9680   38.3198 C   0  0  0  0  0  0
   17.4872   10.8562   35.5874 C   0  0  0  0  0  0
   15.9485   12.6746   35.9906 C   0  0  0  0  0  0
   17.2577   15.6029   32.7660 C   0  0  0  0  0  0
   17.9107   13.0352   34.6302 C   0  0  0  0  0  0
   13.1677   11.4413   39.4764 C   0  0  0  0  0  0
   12.5920    8.6280   35.3600 O   0  0  0  0  0  0
   18.4837   15.2634   33.6254 C   0  0  0  0  0  0
   12.9911   13.8273   39.7631 O   0  0  0  0  0  0
   17.0284   14.9793   31.5359 C   0  0  0  0  0  0
   18.2870   11.7076   34.8274 C   0  0  0  0  0  0
   16.7592   13.5248   35.2532 C   0  0  0  0  0  0
   13.8056   11.3718   36.0271 H   0  0  0  0  0  0
   13.2737    9.1044   37.8850 H   0  0  0  0  0  0
   16.5585   17.1146   34.1225 H   0  0  0  0  0  0
   13.8396   19.3006   34.1478 H   0  0  0  0  0  0
   15.7974   14.8754   29.7725 H   0  0  0  0  0  0
   19.5489   13.4158   33.3994 H   0  0  0  0  0  0
   11.5674   18.8555   30.2574 H   0  0  0  0  0  0
   12.1222   17.7191   29.0332 H   0  0  0  0  0  0
   11.3728   10.4998   38.7606 H   0  0  0  0  0  0
   11.8822   11.8365   37.7712 H   0  0  0  0  0  0
   17.7909    9.8279   35.7039 H   0  0  0  0  0  0
   15.0502   13.0831   36.4307 H   0  0  0  0  0  0
   14.1556   11.7301   39.1169 H   0  0  0  0  0  0
   13.3301   10.6181   40.1722 H   0  0  0  0  0  0
   11.9666    8.2028   34.7566 H   0  0  0  0  0  0
   18.3906   15.7227   34.6113 H   0  0  0  0  0  0
   19.3833   15.6968   33.1911 H   0  0  0  0  0  0
   13.5777   13.7536   39.0067 H   0  0  0  0  0  0
   17.7030   14.2059   31.1938 H   0  0  0  0  0  0
   19.1912   11.3261   34.3723 H   0  0  0  0  0  0
   16.4544   14.5526   35.1446 H   0  0  0  0  0  0
  1  2  2  0  0  0
  1  4  1  0  0  0
  2  3  1  0  0  0
  2 14  1  0  0  0
  3 11  2  0  0  0
  3  6  1  0  0  0
  4  5  2  0  0  0
  4 19  1  0  0  0
  5  6  1  0  0  0
  6 17  2  0  0  0
  7 12  1  0  0  0
  7  8  1  0  0  0
  7 15  2  0  0  0
  8 10  1  0  0  0
  8 33  1  0  0  0
  9 10  1  0  0  0
  9 16  2  0  0  0
  9 27  1  0  0  0
 10 21  1  0  0  0
 10 34  1  0  0  0
 11 24  1  0  0  0
 11 35  1  0  0  0
 12 23  2  0  0  0
 12 22  1  0  0  0
 13 26  1  0  0  0
 13 20  2  0  0  0
 13 29  1  0  0  0
 14 36  1  0  0  0
 17 30  1  0  0  0
 17 37  1  0  0  0
 18 28  1  0  0  0
 18 25  1  0  0  0
 18 38  1  0  0  0
 19 39  1  0  0  0
 19 40  1  0  0  0
 21 26  1  0  0  0
 21 41  1  0  0  0
 21 42  1  0  0  0
 22 31  2  0  0  0
 22 43  1  0  0  0
 23 32  1  0  0  0
 23 44  1  0  0  0
 24 28  1  0  0  0
 24 30  2  0  0  0
 25 31  1  0  0  0
 25 32  2  0  0  0
 26 45  1  0  0  0
 26 46  1  0  0  0
 27 47  1  0  0  0
 28 48  1  0  0  0
 28 49  1  0  0  0
 29 50  1  0  0  0
 30 51  1  0  0  0
 31 52  1  0  0  0
 32 53  1  0  0  0
M  END
> <s_m_entry_id>
40978

> <s_m_entry_name>
dock_pv.95

> <s_m_Source_Path>
/home/csk/Desktop/cluster/DUD-E-result/tysy

> <s_m_Source_File>
dock_pv.maegz

> <i_m_Source_File_Index>
95

> <chembl_id>
CHEMBL22973

> <chembl_pref_name>
None

> <i_lp_mmshare_version>
53161

> <r_lp_tautomer_probability>
1

> <s_lp_Force_Field>
OPLS_2005

> <r_lp_Energy>
9.394776

> <b_lp_Chiralities_Consistent>
1

> <s_lp_Variant>
CHEMBL1952_lig95-1

> <s_i_glide_gridfile>
glide-grid_1syn

> <i_i_glide_lignum>
166

> <i_i_glide_rotatable_bonds>
13

> <r_i_docking_score>
-8.49280641740902

> <r_i_glide_ligand_efficiency>
-0.265400200544032

> <r_i_glide_ligand_efficiency_sa>
-0.842593114098933

> <r_i_glide_ligand_efficiency_ln>
-1.9017708620173

> <r_i_glide_gscore>
-8.49280641740902

> <r_i_glide_lipo>
-3.289078759644

> <r_i_glide_hbond>
-0.538661501459493

> <r_i_glide_metal>
0

> <r_i_glide_rewards>
-0.86300195523533

> <r_i_glide_evdw>
-51.2664108276367

> <r_i_glide_ecoul>
-14.573938369751

> <r_i_glide_erotb>
1.03361027205353

> <r_i_glide_esite>
-0.0862631762792454

> <r_i_glide_emodel>
-100.410414155966

> <r_i_glide_energy>
-65.8403491973877

> <r_i_glide_einternal>
5.4038667678833

> <i_i_glide_confnum>
175

> <i_i_glide_posenum>
313

> <r_i_glide_eff_state_penalty>
0

> <s_user_duplicate_titles>
CHEMBL1952_lig95

> <i_f3d_flags>
0

> <s_m_subgroup_title>
dock_pv

> <s_m_subgroupid>
dock_pv

> <b_m_subgroup_collapsed>
1

$$$$
CHEMBL1952_lig175
                    3D
 Schrodinger Suite 2021-1.
 41 43  0  0  1  0            999 V2000
   15.7916   12.5542   36.0708 C   0  0  0  0  0  0
   17.0348   12.4944   35.4406 C   0  0  0  0  0  0
   17.4438   13.5805   34.6528 C   0  0  0  0  0  0
   16.5962   14.6713   34.4549 C   0  0  0  0  0  0
   15.3628   14.7157   35.0978 C   0  0  0  0  0  0
   14.9342   13.6445   35.9041 C   0  0  0  0  0  0
   17.1211   16.0054   33.4147 S   0  0  0  0  0  0
   15.8302   16.1748   32.1913 C   0  0  0  0  0  0
   14.4808   16.0229   29.9621 S   0  0  0  0  0  0
   15.8040   15.4640   30.9602 C   0  0  0  0  0  0
   14.0175   17.2067   31.1164 C   0  0  0  0  0  0
   14.8215   17.1752   32.2559 C   0  0  0  0  0  0
   14.5263   18.1667   33.3027 C   0  0  0  0  0  0
   13.5136   19.0063   32.9340 N   0  0  0  0  0  0
   12.7855   18.9912   31.7702 C   0  0  0  0  0  0
   13.0031   18.0906   30.8766 N   0  0  0  0  0  0
   16.7090   14.4021   30.3372 C   0  0  0  0  0  0
   11.7966   19.9734   31.5932 N   0  0  0  0  0  0
   15.0509   18.3154   34.3963 O   0  0  0  0  0  0
   17.4918   13.5063   31.3041 C   0  0  0  0  0  0
   13.6982   13.5521   36.5222 O   0  0  0  0  0  0
   12.6716   14.4891   36.2005 C   0  0  0  0  0  0
   17.7646   11.3361   35.6199 O   0  0  0  0  0  0
   18.9965   11.1771   34.9217 C   0  0  0  0  0  0
   15.4689   11.7203   36.6755 H   0  0  0  0  0  0
   18.4039   13.5722   34.1580 H   0  0  0  0  0  0
   14.7576   15.5872   34.9215 H   0  0  0  0  0  0
   13.2980   19.7055   33.6423 H   0  0  0  0  0  0
   16.1127   13.7370   29.7081 H   0  0  0  0  0  0
   17.4094   14.8790   29.6489 H   0  0  0  0  0  0
   11.0967   19.8222   30.8733 H   0  0  0  0  0  0
   11.4051   20.4137   32.4101 H   0  0  0  0  0  0
   17.9671   12.6802   30.7802 H   0  0  0  0  0  0
   18.2864   14.0512   31.8114 H   0  0  0  0  0  0
   16.8355   13.0570   32.0431 H   0  0  0  0  0  0
   11.9742   14.6027   37.0327 H   0  0  0  0  0  0
   13.0697   15.4568   35.9859 H   0  0  0  0  0  0
   12.0986   14.2213   35.3185 H   0  0  0  0  0  0
   19.4085   10.1904   35.1343 H   0  0  0  0  0  0
   18.8640   11.2515   33.8409 H   0  0  0  0  0  0
   19.7355   11.9129   35.2408 H   0  0  0  0  0  0
  1  6  1  0  0  0
  1  2  2  0  0  0
  1 25  1  0  0  0
  2 23  1  0  0  0
  2  3  1  0  0  0
  3  4  2  0  0  0
  3 26  1  0  0  0
  4  7  1  0  0  0
  4  5  1  0  0  0
  5  6  2  0  0  0
  5 27  1  0  0  0
  6 21  1  0  0  0
  7  8  1  0  0  0
  8 12  1  0  0  0
  8 10  2  0  0  0
  9 11  1  0  0  0
  9 10  1  0  0  0
 10 17  1  0  0  0
 11 12  2  0  0  0
 11 16  1  0  0  0
 12 13  1  0  0  0
 13 14  1  0  0  0
 13 19  2  0  0  0
 14 15  1  0  0  0
 14 28  1  0  0  0
 15 16  2  0  0  0
 15 18  1  0  0  0
 17 20  1  0  0  0
 17 29  1  0  0  0
 17 30  1  0  0  0
 18 31  1  0  0  0
 18 32  1  0  0  0
 20 33  1  0  0  0
 20 34  1  0  0  0
 20 35  1  0  0  0
 21 22  1  0  0  0
 22 36  1  0  0  0
 22 37  1  0  0  0
 22 38  1  0  0  0
 23 24  1  0  0  0
 24 39  1  0  0  0
 24 40  1  0  0  0
 24 41  1  0  0  0
M  END
> <s_m_entry_id>
40979

> <s_m_entry_name>
dock_pv.96

> <s_m_Source_Path>
/home/csk/Desktop/cluster/DUD-E-result/tysy

> <s_m_Source_File>
dock_pv.maegz

> <i_m_Source_File_Index>
96

> <chembl_id>
CHEMBL563212

> <chembl_pref_name>
None

> <i_lp_mmshare_version>
53161

> <r_lp_tautomer_probability>
1

> <s_lp_Force_Field>
OPLS_2005

> <r_lp_Energy>
20.232078

> <b_lp_Chiralities_Consistent>
1

> <s_lp_Variant>
CHEMBL1952_lig175-1

> <s_i_glide_gridfile>
glide-grid_1syn

> <i_i_glide_lignum>
352

> <i_i_glide_rotatable_bonds>
5

> <r_i_docking_score>
-8.48463313402576

> <r_i_glide_ligand_efficiency>
-0.353526380584406

> <r_i_glide_ligand_efficiency_sa>
-1.01974653990012

> <r_i_glide_ligand_efficiency_ln>
-2.03076204341751

> <r_i_glide_gscore>
-8.48463313402576

> <r_i_glide_lipo>
-3.60476749833334

> <r_i_glide_hbond>
-0.456

> <r_i_glide_metal>
0

> <r_i_glide_rewards>
-1.4234583549943

> <r_i_glide_evdw>
-44.8195915222168

> <r_i_glide_ecoul>
-6.90952587127686

> <r_i_glide_erotb>
0.290893960789508

> <r_i_glide_esite>
-0.0138927846852631

> <r_i_glide_emodel>
-70.2011830927533

> <r_i_glide_energy>
-51.7291173934937

> <r_i_glide_einternal>
9.8904447555542

> <i_i_glide_confnum>
8

> <i_i_glide_posenum>
353

> <r_i_glide_eff_state_penalty>
0

> <s_user_duplicate_titles>
CHEMBL1952_lig175

> <i_f3d_flags>
0

> <s_m_subgroup_title>
dock_pv

> <s_m_subgroupid>
dock_pv

> <b_m_subgroup_collapsed>
1

$$$$
CHEMBL1952_lig133
                    3D
 Schrodinger Suite 2021-1.
 40 43  0  0  1  0            999 V2000
   13.0320   18.5474   31.5580 N   0  0  0  0  0  0
   12.7938   18.0370   30.3293 C   0  0  0  0  0  0
   13.4274   17.0111   29.7217 N   0  0  0  0  0  0
   14.0442   18.0118   32.2869 C   0  0  0  0  0  0
   14.3781   18.4825   33.5270 O   0  0  0  0  0  0
   15.9154   16.1076   32.1457 C   0  0  0  0  0  0
   14.7951   16.9332   31.7593 C   0  0  0  0  0  0
   14.4037   16.4965   30.4659 C   0  0  0  0  0  0
   15.2191   15.4536   30.1114 N   0  0  0  0  0  0
   16.1342   15.2106   31.1058 C   0  0  0  0  0  0
   17.1509   14.1013   30.9458 C   0  0  0  0  0  0
   11.7920   18.6280   29.5910 N   0  0  0  0  0  0
   18.5914   14.6280   30.9510 C   0  0  0  0  0  0
   16.8984   16.2280   33.5910 S   0  0  0  0  0  0
   16.0825   15.0645   34.6620 C   0  0  0  0  0  0
   14.8262   15.3438   35.1910 C   0  0  0  0  0  0
   14.1858   14.4111   35.9952 C   0  0  0  0  0  0
   14.7833   13.1881   36.2779 C   0  0  0  0  0  0
   16.7622   13.8351   34.9573 C   0  0  0  0  0  0
   16.0635   12.8727   35.7589 C   0  0  0  0  0  0
   16.6501   11.6073   36.0079 C   0  0  0  0  0  0
   17.9107   11.3020   35.5090 C   0  0  0  0  0  0
   18.6130   12.2393   34.7650 C   0  0  0  0  0  0
   18.0625   13.4866   34.4870 C   0  0  0  0  0  0
   13.8012   19.2119   33.7832 H   0  0  0  0  0  0
   15.1903   14.9223   29.2545 H   0  0  0  0  0  0
   17.0366   13.3738   31.7499 H   0  0  0  0  0  0
   16.9831   13.5379   30.0269 H   0  0  0  0  0  0
   11.5982   18.2646   28.6749 H   0  0  0  0  0  0
   11.1378   19.2662   30.0335 H   0  0  0  0  0  0
   19.3076   13.8280   30.7910 H   0  0  0  0  0  0
   18.7511   15.3620   30.1623 H   0  0  0  0  0  0
   18.8575   15.1002   31.8925 H   0  0  0  0  0  0
   14.3403   16.2817   34.9684 H   0  0  0  0  0  0
   13.2050   14.6280   36.3910 H   0  0  0  0  0  0
   14.2636   12.4636   36.8877 H   0  0  0  0  0  0
   16.1145   10.8801   36.5999 H   0  0  0  0  0  0
   18.3553   10.3379   35.7094 H   0  0  0  0  0  0
   19.5974   11.9958   34.3910 H   0  0  0  0  0  0
   18.6379   14.1829   33.8990 H   0  0  0  0  0  0
  1  2  2  0  0  0
  1  4  1  0  0  0
  2  3  1  0  0  0
  2 12  1  0  0  0
  3  8  2  0  0  0
  4  5  1  0  0  0
  4  7  2  0  0  0
  5 25  1  0  0  0
  6  7  1  0  0  0
  6 10  2  0  0  0
  6 14  1  0  0  0
  7  8  1  0  0  0
  8  9  1  0  0  0
  9 10  1  0  0  0
  9 26  1  0  0  0
 10 11  1  0  0  0
 11 13  1  0  0  0
 11 27  1  0  0  0
 11 28  1  0  0  0
 12 29  1  0  0  0
 12 30  1  0  0  0
 13 31  1  0  0  0
 13 32  1  0  0  0
 13 33  1  0  0  0
 14 15  1  0  0  0
 15 16  2  0  0  0
 15 19  1  0  0  0
 16 17  1  0  0  0
 16 34  1  0  0  0
 17 18  2  0  0  0
 17 35  1  0  0  0
 18 20  1  0  0  0
 18 36  1  0  0  0
 19 20  1  0  0  0
 19 24  2  0  0  0
 20 21  2  0  0  0
 21 22  1  0  0  0
 21 37  1  0  0  0
 22 23  2  0  0  0
 22 38  1  0  0  0
 23 24  1  0  0  0
 23 39  1  0  0  0
 24 40  1  0  0  0
M  END
> <s_m_entry_id>
40980

> <s_m_entry_name>
dock_pv.97

> <s_m_Source_Path>
/home/csk/Desktop/cluster/DUD-E-result/tysy

> <s_m_Source_File>
dock_pv.maegz

> <i_m_Source_File_Index>
97

> <chembl_id>
CHEMBL436761

> <chembl_pref_name>
None

> <i_lp_mmshare_version>
53161

> <r_lp_tautomer_probability>
1

> <s_lp_Force_Field>
OPLS_2005

> <r_lp_Energy>
9.375446

> <b_lp_Chiralities_Consistent>
1

> <s_lp_Variant>
CHEMBL1952_lig133-1

> <s_i_glide_gridfile>
glide-grid_1syn

> <i_i_glide_lignum>
310

> <i_i_glide_rotatable_bonds>
4

> <r_i_docking_score>
-8.4822228407019

> <r_i_glide_ligand_efficiency>
-0.353425951695913

> <r_i_glide_ligand_efficiency_sa>
-1.01945685285787

> <r_i_glide_ligand_efficiency_ln>
-2.03018514962396

> <r_i_glide_gscore>
-8.4822228407019

> <r_i_glide_lipo>
-3.65199618547643

> <r_i_glide_hbond>
-0.350932562187111

> <r_i_glide_metal>
0

> <r_i_glide_rewards>
-1.75211300142224

> <r_i_glide_evdw>
-42.9744911193848

> <r_i_glide_ecoul>
-5.65156936645508

> <r_i_glide_erotb>
0.333755386108546

> <r_i_glide_esite>
-0.0644765167871728

> <r_i_glide_emodel>
-72.0796671186726

> <r_i_glide_energy>
-48.6260604858398

> <r_i_glide_einternal>
3.76448273658752

> <i_i_glide_confnum>
5

> <i_i_glide_posenum>
128

> <r_i_glide_eff_state_penalty>
0

> <s_user_duplicate_titles>
CHEMBL1952_lig133

> <i_f3d_flags>
0

> <s_m_subgroup_title>
dock_pv

> <s_m_subgroupid>
dock_pv

> <b_m_subgroup_collapsed>
1

$$$$
CHEMBL1952_lig212
                    3D
 Schrodinger Suite 2021-1.
 54 56  0  0  1  0            999 V2000
   13.8551   17.7802   31.9023 N   0  0  0  0  0  0
   13.6342   17.1287   30.7224 C   0  0  0  0  0  0
   14.4100   16.1871   30.3275 N   0  0  0  0  0  0
   14.8646   17.5659   32.7763 C   0  0  0  0  0  0
   14.9867   18.2275   33.8016 O   0  0  0  0  0  0
   15.7942   16.4684   32.3255 C   0  0  0  0  0  0
   15.5235   15.8298   31.1109 C   0  0  0  0  0  0
   16.3826   14.8287   30.6544 C   0  0  0  0  0  0
   17.5093   14.4780   31.4100 C   0  0  0  0  0  0
   17.7828   15.1310   32.6211 C   0  0  0  0  0  0
   16.9177   16.1300   33.0774 C   0  0  0  0  0  0
   19.0478   14.8303   33.4201 C   0  0  0  0  0  0
   19.1714   13.4279   33.7889 N   0  0  0  0  0  0
   18.2596   12.7402   34.5980 C   0  0  0  0  0  0
   18.4709   11.3757   34.7860 C   0  0  0  0  0  0
   17.5503   10.6156   35.4999 C   0  0  0  0  0  0
   16.3964   11.2021   36.0338 C   0  0  0  0  0  0
   16.2231   12.5909   35.9069 C   0  0  0  0  0  0
   17.1503   13.3482   35.1955 C   0  0  0  0  0  0
   15.4045   10.3442   36.7713 C   0  0  0  0  0  0
   15.7855    9.4283   37.5042 O   0  0  0  0  0  0
   14.1134   10.6432   36.5424 N   0  0  0  0  0  0
   12.9470   10.0002   37.1576 C   0  0  1  0  0  0
   12.2946   11.0023   38.1569 C   0  0  0  0  0  0
   11.9650    9.4766   36.0816 C   0  0  0  0  0  0
   12.5956    8.6279   35.2127 O   0  0  0  0  0  0
   10.7807    9.7478   36.0509 O   0  0  0  0  0  0
   13.2004   11.3975   39.3491 C   0  0  0  0  0  0
   12.6224   12.5506   40.1691 C   0  0  0  0  0  0
   12.9527   13.7696   39.6540 O   0  0  0  0  0  0
   11.9497   12.3957   41.1893 O   0  0  0  0  0  0
   12.4417   17.5364   29.8893 C   0  0  0  0  0  0
   15.1639   13.2281   36.4672 F   0  0  0  0  0  0
   13.2394   18.5306   32.1730 H   0  0  0  0  0  0
   16.1782   14.3350   29.7125 H   0  0  0  0  0  0
   18.1793   13.7089   31.0482 H   0  0  0  0  0  0
   17.1418   16.6619   33.9902 H   0  0  0  0  0  0
   19.1017   15.4522   34.3157 H   0  0  0  0  0  0
   19.9103   15.0880   32.8028 H   0  0  0  0  0  0
   19.9620   12.9023   33.4090 H   0  0  0  0  0  0
   19.3306   10.8940   34.3428 H   0  0  0  0  0  0
   17.7216    9.5549   35.5893 H   0  0  0  0  0  0
   16.9821   14.4085   35.1051 H   0  0  0  0  0  0
   13.9083   11.3900   35.8946 H   0  0  0  0  0  0
   13.2611    9.1144   37.7162 H   0  0  0  0  0  0
   11.3802   10.5657   38.5683 H   0  0  0  0  0  0
   11.9833   11.9007   37.6183 H   0  0  0  0  0  0
   11.9604    8.1878   34.6270 H   0  0  0  0  0  0
   14.1954   11.6890   39.0127 H   0  0  0  0  0  0
   13.3444   10.5354   40.0021 H   0  0  0  0  0  0
   13.4747   13.7137   38.8486 H   0  0  0  0  0  0
   12.7306   17.7247   28.8527 H   0  0  0  0  0  0
   11.6816   16.7534   29.8868 H   0  0  0  0  0  0
   11.9673   18.4488   30.2624 H   0  0  0  0  0  0
  1  2  1  0  0  0
  1  4  1  0  0  0
  1 34  1  0  0  0
  2 32  1  0  0  0
  2  3  2  0  0  0
  3  7  1  0  0  0
  4  6  1  0  0  0
  4  5  2  0  0  0
  6 11  1  0  0  0
  6  7  2  0  0  0
  7  8  1  0  0  0
  8  9  2  0  0  0
  8 35  1  0  0  0
  9 10  1  0  0  0
  9 36  1  0  0  0
 10 11  2  0  0  0
 10 12  1  0  0  0
 11 37  1  0  0  0
 12 13  1  0  0  0
 12 38  1  0  0  0
 12 39  1  0  0  0
 13 14  1  0  0  0
 13 40  1  0  0  0
 14 19  1  0  0  0
 14 15  2  0  0  0
 15 16  1  0  0  0
 15 41  1  0  0  0
 16 17  2  0  0  0
 16 42  1  0  0  0
 17 18  1  0  0  0
 17 20  1  0  0  0
 18 19  2  0  0  0
 18 33  1  0  0  0
 19 43  1  0  0  0
 20 21  2  0  0  0
 20 22  1  0  0  0
 22 23  1  0  0  0
 22 44  1  0  0  0
 23 24  1  0  0  0
 23 25  1  0  0  0
 23 45  1  0  0  0
 24 28  1  0  0  0
 24 46  1  0  0  0
 24 47  1  0  0  0
 25 26  1  0  0  0
 25 27  2  0  0  0
 26 48  1  0  0  0
 28 29  1  0  0  0
 28 49  1  0  0  0
 28 50  1  0  0  0
 29 30  1  0  0  0
 29 31  2  0  0  0
 30 51  1  0  0  0
 32 52  1  0  0  0
 32 53  1  0  0  0
 32 54  1  0  0  0
M  END
> <s_m_entry_id>
40981

> <s_m_entry_name>
dock_pv.98

> <s_m_Source_Path>
/home/csk/Desktop/cluster/DUD-E-result/tysy

> <s_m_Source_File>
dock_pv.maegz

> <i_m_Source_File_Index>
98

> <chembl_id>
CHEMBL104533

> <chembl_pref_name>
None

> <i_lp_mmshare_version>
53161

> <r_lp_tautomer_probability>
0.883938

> <s_lp_Force_Field>
OPLS_2005

> <r_lp_Energy>
24.901088

> <b_lp_Chiralities_Consistent>
1

> <s_lp_Variant>
CHEMBL1952_lig212-1

> <s_i_glide_gridfile>
glide-grid_1syn

> <i_i_glide_lignum>
420

> <i_i_glide_rotatable_bonds>
12

> <r_i_docking_score>
-8.47717639178312

> <r_i_glide_ligand_efficiency>
-0.256884133084337

> <r_i_glide_ligand_efficiency_sa>
-0.823964674738895

> <r_i_glide_ligand_efficiency_ln>
-1.88528013706228

> <r_i_glide_gscore>
-8.47717639178312

> <r_i_glide_lipo>
-2.887883448969

> <r_i_glide_hbond>
-0.445827122690829

> <r_i_glide_metal>
0

> <r_i_glide_rewards>
-1.17011902529391

> <r_i_glide_evdw>
-52.9823036193848

> <r_i_glide_ecoul>
-14.4597034454346

> <r_i_glide_erotb>
0.96469983182607

> <r_i_glide_esite>
-0.119975928871022

> <r_i_glide_emodel>
-102.090247491969

> <r_i_glide_energy>
-67.4420070648193

> <r_i_glide_einternal>
4.61516284942627

> <i_i_glide_confnum>
53

> <i_i_glide_posenum>
377

> <r_i_glide_eff_state_penalty>
0

> <s_user_duplicate_titles>
CHEMBL1952_lig212,CHEMBL1952_lig212

> <i_f3d_flags>
0

> <s_m_subgroup_title>
dock_pv

> <s_m_subgroupid>
dock_pv

> <b_m_subgroup_collapsed>
1

$$$$
CHEMBL1952_lig100
                    3D
 Schrodinger Suite 2021-1.
 58 60  0  0  1  0            999 V2000
   11.9629   19.1727   29.3154 N   0  0  0  0  0  0
   12.8818   18.3417   29.9627 C   0  0  0  0  0  0
   13.5856   17.5686   29.2382 N   0  0  0  0  0  0
   14.5922   16.7590   29.7714 C   0  0  0  0  0  0
   15.2666   15.9541   29.1326 O   0  0  0  0  0  0
   14.8448   16.9284   31.2611 C   0  0  0  0  0  0
   15.9490   16.3291   31.8733 C   0  0  0  0  0  0
   16.1811   16.4449   33.2454 C   0  0  0  0  0  0
   17.4850   15.8475   33.8376 C   0  0  0  0  0  0
   17.5368   14.3893   34.0324 N   0  0  0  0  0  0
   18.3668   13.6350   33.0816 C   0  0  0  0  0  0
   17.6602   13.4533   31.8098 C   0  0  0  0  0  0
   16.9920   13.4280   30.7910 C   0  0  0  0  0  0
   16.7600   13.7409   35.0371 C   0  0  0  0  0  0
   15.9475   14.4829   35.9018 C   0  0  0  0  0  0
   15.0782   13.8706   36.7910 C   0  0  0  0  0  0
   15.0175   12.4767   36.8713 C   0  0  0  0  0  0
   15.8940   11.7185   36.0894 C   0  0  0  0  0  0
   16.7556   12.3445   35.1910 C   0  0  0  0  0  0
   14.0305   11.7957   37.7832 C   0  0  0  0  0  0
   14.2471   10.6714   38.2415 O   0  0  0  0  0  0
   12.8948   12.4816   38.0177 N   0  0  0  0  0  0
   11.7121   12.0537   38.7804 C   0  0  1  0  0  0
   11.0959   10.7517   38.1884 C   0  0  0  0  0  0
   10.7277   10.8514   36.6871 C   0  0  0  0  0  0
   10.5468    9.4811   36.0349 C   0  0  0  0  0  0
    9.9761    8.5349   36.5712 O   0  0  0  0  0  0
   11.0922    9.4280   34.7874 O   0  0  0  0  0  0
   11.9697   11.9739   40.3019 C   0  0  0  0  0  0
   11.3920   12.6720   41.1101 O   0  0  0  0  0  0
   12.9089   11.0281   40.5948 O   0  0  0  0  0  0
   15.2753   17.2224   33.9910 C   0  0  0  0  0  0
   14.1975   17.8737   33.3817 C   0  0  0  0  0  0
   13.9949   17.7376   32.0133 C   0  0  0  0  0  0
   12.9920   18.4370   31.3347 N   0  0  0  0  0  0
   11.7550   18.9699   28.3509 H   0  0  0  0  0  0
   11.1155   19.4280   29.8095 H   0  0  0  0  0  0
   16.6878   15.8538   31.2563 H   0  0  0  0  0  0
   18.2908   16.1544   33.1709 H   0  0  0  0  0  0
   17.7920   16.2280   34.7910 H   0  0  0  0  0  0
   19.2696   14.2040   32.8542 H   0  0  0  0  0  0
   18.7504   12.6879   33.4567 H   0  0  0  0  0  0
   16.3838   13.4280   29.9141 H   0  0  0  0  0  0
   15.9591   15.5541   35.9019 H   0  0  0  0  0  0
   14.4666   14.5051   37.4165 H   0  0  0  0  0  0
   15.8933   10.6390   36.1457 H   0  0  0  0  0  0
   17.3836   11.7089   34.5900 H   0  0  0  0  0  0
   12.8074   13.3834   37.5746 H   0  0  0  0  0  0
   10.9770   12.8489   38.6425 H   0  0  0  0  0  0
   11.7691    9.9054   38.3379 H   0  0  0  0  0  0
   10.1882   10.4987   38.7398 H   0  0  0  0  0  0
    9.8174   11.4355   36.5510 H   0  0  0  0  0  0
   11.5092   11.3712   36.1330 H   0  0  0  0  0  0
   10.9966    8.5459   34.3910 H   0  0  0  0  0  0
   13.3217   10.6864   39.7894 H   0  0  0  0  0  0
   15.3920   17.3806   35.0501 H   0  0  0  0  0  0
   13.5455   18.5064   33.9678 H   0  0  0  0  0  0
   12.4283   19.1038   31.8336 H   0  0  0  0  0  0
  1  2  1  0  0  0
  1 36  1  0  0  0
  1 37  1  0  0  0
  2  3  2  0  0  0
  2 35  1  0  0  0
  3  4  1  0  0  0
  4  5  2  0  0  0
  4  6  1  0  0  0
  6  7  2  0  0  0
  6 34  1  0  0  0
  7  8  1  0  0  0
  7 38  1  0  0  0
  8  9  1  0  0  0
  8 32  2  0  0  0
  9 10  1  0  0  0
  9 39  1  0  0  0
  9 40  1  0  0  0
 10 11  1  0  0  0
 10 14  1  0  0  0
 11 12  1  0  0  0
 11 41  1  0  0  0
 11 42  1  0  0  0
 12 13  3  0  0  0
 13 43  1  0  0  0
 14 15  2  0  0  0
 14 19  1  0  0  0
 15 16  1  0  0  0
 15 44  1  0  0  0
 16 17  2  0  0  0
 16 45  1  0  0  0
 17 18  1  0  0  0
 17 20  1  0  0  0
 18 19  2  0  0  0
 18 46  1  0  0  0
 19 47  1  0  0  0
 20 21  2  0  0  0
 20 22  1  0  0  0
 22 23  1  0  0  0
 22 48  1  0  0  0
 23 24  1  0  0  0
 23 29  1  0  0  0
 23 49  1  0  0  0
 24 25  1  0  0  0
 24 50  1  0  0  0
 24 51  1  0  0  0
 25 26  1  0  0  0
 25 52  1  0  0  0
 25 53  1  0  0  0
 26 27  2  0  0  0
 26 28  1  0  0  0
 28 54  1  0  0  0
 29 30  2  0  0  0
 29 31  1  0  0  0
 31 55  1  0  0  0
 32 33  1  0  0  0
 32 56  1  0  0  0
 33 34  2  0  0  0
 33 57  1  0  0  0
 34 35  1  0  0  0
 35 58  1  0  0  0
M  END
> <s_m_entry_id>
40982

> <s_m_entry_name>
dock_pv.99

> <s_m_Source_Path>
/home/csk/Desktop/cluster/DUD-E-result/tysy

> <s_m_Source_File>
dock_pv.maegz

> <i_m_Source_File_Index>
99

> <chembl_id>
CHEMBL422395

> <chembl_pref_name>
None

> <i_lp_mmshare_version>
53161

> <r_lp_tautomer_probability>
1

> <s_lp_Force_Field>
OPLS_2005

> <r_lp_Energy>
12.680407

> <b_lp_Chiralities_Consistent>
1

> <s_lp_Variant>
CHEMBL1952_lig100-2

> <s_i_glide_gridfile>
glide-grid_1syn

> <i_i_glide_lignum>
185

> <i_i_glide_rotatable_bonds>
14

> <r_i_docking_score>
-8.46629467331636

> <r_i_glide_ligand_efficiency>
-0.241894133523325

> <r_i_glide_ligand_efficiency_sa>
-0.791251749862683

> <r_i_glide_ligand_efficiency_ln>
-1.85853958007947

> <r_i_glide_gscore>
-8.46629467331636

> <r_i_glide_lipo>
-3.83697875795169

> <r_i_glide_hbond>
-0.353946332352528

> <r_i_glide_metal>
0

> <r_i_glide_rewards>
-0.786215130578201

> <r_i_glide_evdw>
-46.6953239440918

> <r_i_glide_ecoul>
-14.020224571228

> <r_i_glide_erotb>
1.06628412535036

> <r_i_glide_esite>
-0.117638694895508

> <r_i_glide_emodel>
-87.6933083263985

> <r_i_glide_energy>
-60.7155485153198

> <r_i_glide_einternal>
9.56800270080566

> <i_i_glide_confnum>
43

> <i_i_glide_posenum>
23

> <r_i_glide_eff_state_penalty>
0

> <s_user_duplicate_titles>
CHEMBL1952_lig100,CHEMBL1952_lig13

> <i_f3d_flags>
0

> <s_m_subgroup_title>
dock_pv

> <s_m_subgroupid>
dock_pv

> <b_m_subgroup_collapsed>
1

$$$$
CHEMBL1952_lig21
                    3D
 Schrodinger Suite 2021-1.
 37 40  0  0  1  0            999 V2000
   14.8359   16.9212   31.7770 C   0  0  0  0  0  0
   14.4468   16.4601   30.4914 C   0  0  0  0  0  0
   13.4576   16.9455   29.7435 N   0  0  0  0  0  0
   15.9782   16.1274   32.1657 C   0  0  0  0  0  0
   14.0612   17.9871   32.2960 C   0  0  0  0  0  0
   13.0379   18.4968   31.5616 N   0  0  0  0  0  0
   12.8063   17.9692   30.3381 C   0  0  0  0  0  0
   15.2806   15.4275   30.1485 N   0  0  0  0  0  0
   16.2047   15.2191   31.1435 C   0  0  0  0  0  0
   16.9830   16.2851   33.5909 S   0  0  0  0  0  0
   14.3849   18.4685   33.5349 O   0  0  0  0  0  0
   16.2903   15.0278   34.6052 C   0  0  0  0  0  0
   16.4142   12.7841   35.5414 C   0  0  0  0  0  0
   16.9917   13.8387   34.7913 C   0  0  0  0  0  0
   11.7920   18.5318   29.5913 N   0  0  0  0  0  0
   15.1372   12.9816   36.1525 C   0  0  0  0  0  0
   14.4818   14.2283   35.9930 C   0  0  0  0  0  0
   15.0547   15.2283   35.2125 C   0  0  0  0  0  0
   17.2516   14.1385   31.0156 C   0  0  0  0  0  0
   17.0480   11.5239   35.6552 C   0  0  0  0  0  0
   14.5492   11.9161   36.8766 C   0  0  0  0  0  0
   16.4287   10.4908   36.3525 C   0  0  0  0  0  0
   15.1947   10.6857   36.9639 C   0  0  0  0  0  0
   15.2594   14.8838   29.2989 H   0  0  0  0  0  0
   13.8002   19.1937   33.7863 H   0  0  0  0  0  0
   17.9515   13.6924   34.3153 H   0  0  0  0  0  0
   11.6192   18.1672   28.6734 H   0  0  0  0  0  0
   11.1359   19.1778   30.0172 H   0  0  0  0  0  0
   13.5172   14.3880   36.4527 H   0  0  0  0  0  0
   14.5331   16.1633   35.0734 H   0  0  0  0  0  0
   18.2240   14.4737   31.3748 H   0  0  0  0  0  0
   16.9923   13.2567   31.6007 H   0  0  0  0  0  0
   17.3913   13.8096   29.9911 H   0  0  0  0  0  0
   18.0045   11.3611   35.1794 H   0  0  0  0  0  0
   13.5845   12.0552   37.3399 H   0  0  0  0  0  0
   16.9116    9.5284   36.4123 H   0  0  0  0  0  0
   14.7299    9.8732   37.5027 H   0  0  0  0  0  0
  1  2  1  0  0  0
  1  4  1  0  0  0
  1  5  2  0  0  0
  2  3  2  0  0  0
  2  8  1  0  0  0
  3  7  1  0  0  0
  4  9  2  0  0  0
  4 10  1  0  0  0
  5  6  1  0  0  0
  5 11  1  0  0  0
  6  7  2  0  0  0
  7 15  1  0  0  0
  8  9  1  0  0  0
  8 24  1  0  0  0
  9 19  1  0  0  0
 10 12  1  0  0  0
 11 25  1  0  0  0
 12 14  1  0  0  0
 12 18  2  0  0  0
 13 14  2  0  0  0
 13 20  1  0  0  0
 13 16  1  0  0  0
 14 26  1  0  0  0
 15 27  1  0  0  0
 15 28  1  0  0  0
 16 17  2  0  0  0
 16 21  1  0  0  0
 17 18  1  0  0  0
 17 29  1  0  0  0
 18 30  1  0  0  0
 19 31  1  0  0  0
 19 32  1  0  0  0
 19 33  1  0  0  0
 20 22  2  0  0  0
 20 34  1  0  0  0
 21 23  2  0  0  0
 21 35  1  0  0  0
 22 23  1  0  0  0
 22 36  1  0  0  0
 23 37  1  0  0  0
M  END
> <s_m_entry_id>
40983

> <s_m_entry_name>
dock_pv.100

> <s_m_Source_Path>
/home/csk/Desktop/cluster/DUD-E-result/tysy

> <s_m_Source_File>
dock_pv.maegz

> <i_m_Source_File_Index>
100

> <chembl_id>
CHEMBL141118

> <chembl_pref_name>
None

> <i_lp_mmshare_version>
53161

> <r_lp_tautomer_probability>
1

> <s_lp_Force_Field>
OPLS_2005

> <r_lp_Energy>
7.735321

> <b_lp_Chiralities_Consistent>
1

> <s_lp_Variant>
CHEMBL1952_lig21-1

> <s_i_glide_gridfile>
glide-grid_1syn

> <i_i_glide_lignum>
23

> <i_i_glide_rotatable_bonds>
3

> <r_i_docking_score>
-8.4619130618982

> <r_i_glide_ligand_efficiency>
-0.367909263560791

> <r_i_glide_ligand_efficiency_sa>
-1.0462850051285

> <r_i_glide_ligand_efficiency_ln>
-2.04616730675248

> <r_i_glide_gscore>
-8.4619130618982

> <r_i_glide_lipo>
-3.72977864217212

> <r_i_glide_hbond>
-0.363296793289543

> <r_i_glide_metal>
0

> <r_i_glide_rewards>
-1.85983291206269

> <r_i_glide_evdw>
-41.5727691650391

> <r_i_glide_ecoul>
-4.84670829772949

> <r_i_glide_erotb>
0.359842246103003

> <r_i_glide_esite>
-0.063202257565483

> <r_i_glide_emodel>
-69.5399776472194

> <r_i_glide_energy>
-46.4194774627686

> <r_i_glide_einternal>
2.5865375995636

> <i_i_glide_confnum>
1

> <i_i_glide_posenum>
355

> <r_i_glide_eff_state_penalty>
0

> <s_user_duplicate_titles>
CHEMBL1952_lig21

> <i_f3d_flags>
0

> <s_m_subgroup_title>
dock_pv

> <s_m_subgroupid>
dock_pv

> <b_m_subgroup_collapsed>
1

$$$$
CHEMBL1952_lig329 
                    3D
 Schrodinger Suite 2021-1.
 54 57  0  0  1  0            999 V2000
   13.5183   19.0279   32.9317 N   0  0  0  0  0  0
   12.8024   19.0046   31.7541 C   0  0  0  0  0  0
   13.0550   18.1198   30.8456 N   0  0  0  0  0  0
   14.5644   18.2279   33.3015 C   0  0  0  0  0  0
   14.8931   17.2747   32.2463 C   0  0  0  0  0  0
   14.0972   17.2751   31.1018 C   0  0  0  0  0  0
   14.5674   16.3095   30.2609 N   0  0  0  0  0  0
   15.6513   15.7101   30.8579 C   0  0  0  0  0  0
   15.9031   16.2980   32.1010 C   0  0  0  0  0  0
   15.0969   18.3762   34.3911 O   0  0  0  0  0  0
   11.7928   19.9692   31.5911 N   0  0  0  0  0  0
   17.0746   16.0084   33.0309 C   0  0  0  0  0  0
   16.8084   14.8965   34.0346 C   0  0  0  0  0  0
   15.7713   15.0283   34.9568 C   0  0  0  0  0  0
   15.4622   13.9829   35.8171 C   0  0  0  0  0  0
   16.1801   12.7760   35.7617 C   0  0  0  0  0  0
   17.2750   12.6835   34.8881 C   0  0  0  0  0  0
   17.5870   13.7366   34.0292 C   0  0  0  0  0  0
   15.7929   11.5910   36.6236 C   0  0  0  0  0  0
   16.5747   10.6500   36.7908 O   0  0  0  0  0  0
   14.5646   11.6520   37.1825 N   0  0  0  0  0  0
   14.0988   10.8641   38.2427 C   0  0  0  0  0  0
   13.7919   11.5557   39.4167 C   0  0  0  0  0  0
   13.3298   10.8836   40.5583 C   0  0  0  0  0  0
   13.1424    9.5051   40.4867 C   0  0  0  0  0  0
   13.4177    8.8063   39.3132 C   0  0  0  0  0  0
   13.8921    9.4709   38.1748 C   0  0  0  0  0  0
   14.0527    8.6637   36.8824 C   0  0  0  0  0  0
   12.7492    8.5591   36.0859 C   0  0  0  0  0  0
   12.9920    8.2280   34.7910 O   0  0  0  0  0  0
   11.6245    8.6790   36.5693 O   0  0  0  0  0  0
   13.0471   11.4930   41.7672 O   0  0  0  0  0  0
   13.3904   12.8645   41.9393 C   0  0  0  0  0  0
   13.2679   19.7145   33.6380 H   0  0  0  0  0  0
   14.1905   16.1001   29.3488 H   0  0  0  0  0  0
   16.1823   14.9247   30.3385 H   0  0  0  0  0  0
   11.1036   19.8282   30.8585 H   0  0  0  0  0  0
   11.4030   20.4143   32.4080 H   0  0  0  0  0  0
   17.3482   16.9024   33.5914 H   0  0  0  0  0  0
   17.9612   15.7641   32.4433 H   0  0  0  0  0  0
   15.1815   15.9303   34.9955 H   0  0  0  0  0  0
   14.6411   14.1298   36.5032 H   0  0  0  0  0  0
   17.8705   11.7813   34.8390 H   0  0  0  0  0  0
   18.4094   13.6255   33.3343 H   0  0  0  0  0  0
   14.0323   12.4853   36.9915 H   0  0  0  0  0  0
   13.9441   12.6245   39.4397 H   0  0  0  0  0  0
   12.7725    8.9716   41.3492 H   0  0  0  0  0  0
   13.2331    7.7425   39.2804 H   0  0  0  0  0  0
   14.8305    9.0534   36.2338 H   0  0  0  0  0  0
   14.3709    7.6499   37.1282 H   0  0  0  0  0  0
   12.1472    7.9805   34.3758 H   0  0  0  0  0  0
   13.1697   13.1637   42.9639 H   0  0  0  0  0  0
   12.8146   13.5100   41.2742 H   0  0  0  0  0  0
   14.4550   13.0366   41.7716 H   0  0  0  0  0  0
  1  2  1  0  0  0
  1  4  1  0  0  0
  1 34  1  0  0  0
  2  3  2  0  0  0
  2 11  1  0  0  0
  3  6  1  0  0  0
  4  5  1  0  0  0
  4 10  2  0  0  0
  5  6  2  0  0  0
  5  9  1  0  0  0
  6  7  1  0  0  0
  7  8  1  0  0  0
  7 35  1  0  0  0
  8  9  2  0  0  0
  8 36  1  0  0  0
  9 12  1  0  0  0
 11 37  1  0  0  0
 11 38  1  0  0  0
 12 13  1  0  0  0
 12 39  1  0  0  0
 12 40  1  0  0  0
 13 14  2  0  0  0
 13 18  1  0  0  0
 14 15  1  0  0  0
 14 41  1  0  0  0
 15 16  2  0  0  0
 15 42  1  0  0  0
 16 17  1  0  0  0
 16 19  1  0  0  0
 17 18  2  0  0  0
 17 43  1  0  0  0
 18 44  1  0  0  0
 19 20  2  0  0  0
 19 21  1  0  0  0
 21 22  1  0  0  0
 21 45  1  0  0  0
 22 23  2  0  0  0
 22 27  1  0  0  0
 23 24  1  0  0  0
 23 46  1  0  0  0
 24 25  2  0  0  0
 24 32  1  0  0  0
 25 26  1  0  0  0
 25 47  1  0  0  0
 26 27  2  0  0  0
 26 48  1  0  0  0
 27 28  1  0  0  0
 28 29  1  0  0  0
 28 49  1  0  0  0
 28 50  1  0  0  0
 29 30  1  0  0  0
 29 31  2  0  0  0
 30 51  1  0  0  0
 32 33  1  0  0  0
 33 52  1  0  0  0
 33 53  1  0  0  0
 33 54  1  0  0  0
M  END
> <s_m_entry_id>
40984

> <s_m_entry_name>
dock_pv.101

> <s_m_Source_Path>
/home/csk/Desktop/cluster/DUD-E-result/tysy

> <s_m_Source_File>
dock_pv.maegz

> <i_m_Source_File_Index>
101

> <chembl_id>
CHEMBL4445927

> <chembl_pref_name>
None

> <i_lp_mmshare_version>
53161

> <r_lp_tautomer_probability>
1

> <s_lp_Force_Field>
OPLS_2005

> <r_lp_Energy>
37.090253

> <b_lp_Chiralities_Consistent>
1

> <s_lp_Variant>
CHEMBL1952_lig329 -1

> <s_i_glide_gridfile>
glide-grid_1syn

> <i_i_glide_lignum>
604

> <i_i_glide_rotatable_bonds>
9

> <r_i_docking_score>
-8.45997786619487

> <r_i_glide_ligand_efficiency>
-0.256362965642269

> <r_i_glide_ligand_efficiency_sa>
-0.822293012278733

> <r_i_glide_ligand_efficiency_ln>
-1.88145527402066

> <r_i_glide_gscore>
-8.45997786619487

> <r_i_glide_lipo>
-2.80017111110797

> <r_i_glide_hbond>
-0.48

> <r_i_glide_metal>
0

> <r_i_glide_rewards>
-1.39640204803981

> <r_i_glide_evdw>
-47.2551383972168

> <r_i_glide_ecoul>
-14.0314607620239

> <r_i_glide_erotb>
0.700143239275115

> <r_i_glide_esite>
-0.0160719121577718

> <r_i_glide_emodel>
-92.1182793196161

> <r_i_glide_energy>
-61.2865991592407

> <r_i_glide_einternal>
3.9303150177002

> <i_i_glide_confnum>
6

> <i_i_glide_posenum>
400

> <r_i_glide_eff_state_penalty>
0

> <s_user_duplicate_titles>
CHEMBL1952_lig329 

> <i_f3d_flags>
0

> <s_m_subgroup_title>
dock_pv

> <s_m_subgroupid>
dock_pv

> <b_m_subgroup_collapsed>
1

$$$$
CHEMBL1952_lig359
                    3D
 Schrodinger Suite 2021-1.
 57 59  0  0  1  0            999 V2000
   12.8888   18.5684   31.5753 N   0  0  0  0  0  0
   13.8846   18.3119   32.4483 C   0  0  0  0  0  0
   14.8288   17.2765   32.2365 C   0  0  0  0  0  0
   12.8302   17.7868   30.4790 C   0  0  0  0  0  0
   13.6661   16.7687   30.1612 N   0  0  0  0  0  0
   14.6727   16.5090   31.0463 C   0  0  0  0  0  0
   15.3335   10.5176   36.8561 C   0  0  0  0  0  0
   14.0383   10.8396   37.0139 N   0  0  0  0  0  0
   12.2732    9.2218   36.3695 C   0  0  0  0  0  0
   21.7334   14.2280   34.7909 N   0  0  0  0  0  0
   18.3951   14.4036   33.9319 N   0  0  0  0  0  0
   12.9827    9.9620   37.5275 C   0  0  2  0  0  0
   15.8987   16.9911   33.1204 C   0  0  0  0  0  0
   16.1882   11.5680   36.1819 C   0  0  0  0  0  0
   20.8033   14.1594   34.1078 C   0  0  0  0  0  0
   10.5308   12.8475   38.7700 C   0  0  0  0  0  0
   14.0657   19.0280   33.5910 O   0  0  0  0  0  0
   17.6991   13.4683   34.7403 C   0  0  0  0  0  0
   17.9738   15.7910   33.8030 C   0  0  0  0  0  0
   15.7965    9.4280   37.1994 O   0  0  0  0  0  0
   16.7990   15.9723   32.8425 C   0  0  0  0  0  0
   12.4717    9.4292   35.1908 O   0  0  0  0  0  0
   15.5952   15.4656   30.7853 C   0  0  0  0  0  0
   11.7943   18.0529   29.6056 N   0  0  0  0  0  0
   10.5927   12.7116   39.9911 O   0  0  0  0  0  0
   15.7772   12.9069   36.1127 C   0  0  0  0  0  0
   17.4051   11.2092   35.5897 C   0  0  0  0  0  0
   16.5233   13.8389   35.4046 C   0  0  0  0  0  0
   18.1496   12.1472   34.8767 C   0  0  0  0  0  0
   12.0303   10.7871   38.4368 C   0  0  0  0  0  0
   11.2862   11.9708   37.7654 C   0  0  0  0  0  0
   11.4224    8.2797   36.8605 O   0  0  0  0  0  0
   16.6395   15.2103   31.6779 C   0  0  0  0  0  0
   19.6255   14.0516   33.2360 C   0  0  0  0  0  0
    9.7940   13.8187   38.1599 O   0  0  0  0  0  0
   13.7201   11.7082   36.6154 H   0  0  0  0  0  0
   13.4434    9.1893   38.1459 H   0  0  0  0  0  0
   16.0299   17.5953   34.0049 H   0  0  0  0  0  0
   13.3939   19.6995   33.7828 H   0  0  0  0  0  0
   18.8057   16.3777   33.4259 H   0  0  0  0  0  0
   17.7901   16.2128   34.7904 H   0  0  0  0  0  0
   15.4888   14.8762   29.8857 H   0  0  0  0  0  0
   11.7357   17.5312   28.7490 H   0  0  0  0  0  0
   11.1299   18.7848   29.8364 H   0  0  0  0  0  0
   14.8682   13.2477   36.5854 H   0  0  0  0  0  0
   17.7706   10.1934   35.6413 H   0  0  0  0  0  0
   16.1455   14.8477   35.3557 H   0  0  0  0  0  0
   19.0664   11.8140   34.4145 H   0  0  0  0  0  0
   11.2978   10.1151   38.8883 H   0  0  0  0  0  0
   12.6128   11.1657   39.2786 H   0  0  0  0  0  0
   11.9915   12.6112   37.2362 H   0  0  0  0  0  0
   10.5828   11.5933   37.0214 H   0  0  0  0  0  0
   11.0337    7.8002   36.1255 H   0  0  0  0  0  0
   17.3429   14.4212   31.4507 H   0  0  0  0  0  0
   19.5463   13.0630   32.7915 H   0  0  0  0  0  0
   19.7924   14.7144   32.3850 H   0  0  0  0  0  0
    9.8443   13.7987   37.2021 H   0  0  0  0  0  0
  1  2  2  0  0  0
  1  4  1  0  0  0
  2  3  1  0  0  0
  2 17  1  0  0  0
  3 13  2  0  0  0
  3  6  1  0  0  0
  4  5  2  0  0  0
  4 24  1  0  0  0
  5  6  1  0  0  0
  6 23  2  0  0  0
  7 14  1  0  0  0
  7  8  1  0  0  0
  7 20  2  0  0  0
  8 12  1  0  0  0
  8 36  1  0  0  0
  9 12  1  0  0  0
  9 22  2  0  0  0
  9 32  1  0  0  0
 10 15  3  0  0  0
 11 19  1  0  0  0
 11 18  1  0  0  0
 11 34  1  0  0  0
 12 30  1  0  0  0
 12 37  1  0  0  0
 13 21  1  0  0  0
 13 38  1  0  0  0
 14 27  1  0  0  0
 14 26  2  0  0  0
 15 34  1  0  0  0
 16 31  1  0  0  0
 16 25  2  0  0  0
 16 35  1  0  0  0
 17 39  1  0  0  0
 18 28  2  0  0  0
 18 29  1  0  0  0
 19 21  1  0  0  0
 19 40  1  0  0  0
 19 41  1  0  0  0
 21 33  2  0  0  0
 23 33  1  0  0  0
 23 42  1  0  0  0
 24 43  1  0  0  0
 24 44  1  0  0  0
 26 28  1  0  0  0
 26 45  1  0  0  0
 27 29  2  0  0  0
 27 46  1  0  0  0
 28 47  1  0  0  0
 29 48  1  0  0  0
 30 31  1  0  0  0
 30 49  1  0  0  0
 30 50  1  0  0  0
 31 51  1  0  0  0
 31 52  1  0  0  0
 32 53  1  0  0  0
 33 54  1  0  0  0
 34 55  1  0  0  0
 34 56  1  0  0  0
 35 57  1  0  0  0
M  END
> <s_m_entry_id>
40985

> <s_m_entry_name>
dock_pv.102

> <s_m_Source_Path>
/home/csk/Desktop/cluster/DUD-E-result/tysy

> <s_m_Source_File>
dock_pv.maegz

> <i_m_Source_File_Index>
102

> <chembl_id>
CHEMBL34918

> <chembl_pref_name>
None

> <i_lp_mmshare_version>
53161

> <r_lp_tautomer_probability>
1

> <s_lp_Force_Field>
OPLS_2005

> <r_lp_Energy>
13.088562

> <b_lp_Chiralities_Consistent>
1

> <s_lp_Variant>
CHEMBL1952_lig359-2

> <s_i_glide_gridfile>
glide-grid_1syn

> <i_i_glide_lignum>
703

> <i_i_glide_rotatable_bonds>
14

> <r_i_docking_score>
-8.45864218678267

> <r_i_glide_ligand_efficiency>
-0.241675491050933

> <r_i_glide_ligand_efficiency_sa>
-0.790536555838115

> <r_i_glide_ligand_efficiency_ln>
-1.85685968944754

> <r_i_glide_gscore>
-8.45864218678267

> <r_i_glide_lipo>
-3.49859514360807

> <r_i_glide_hbond>
-0.725689179883963

> <r_i_glide_metal>
0

> <r_i_glide_rewards>
-0.697633870507619

> <r_i_glide_evdw>
-44.7730560302734

> <r_i_glide_ecoul>
-13.7204027175903

> <r_i_glide_erotb>
0.885220495086784

> <r_i_glide_esite>
-0.125231278717576

> <r_i_glide_emodel>
-87.797298579514

> <r_i_glide_energy>
-58.4934587478638

> <r_i_glide_einternal>
6.80795955657959

> <i_i_glide_confnum>
32

> <i_i_glide_posenum>
230

> <r_i_glide_eff_state_penalty>
0

> <s_user_duplicate_titles>
CHEMBL1952_lig359

> <i_f3d_flags>
0

> <s_m_subgroup_title>
dock_pv

> <s_m_subgroupid>
dock_pv

> <b_m_subgroup_collapsed>
1

$$$$
CHEMBL1952_lig469
                    3D
 Schrodinger Suite 2021-1.
 38 41  0  0  1  0            999 V2000
   18.5922   16.0201   34.3907 O   0  0  0  0  0  0
   18.5246   14.6318   33.9247 S   0  0  0  0  0  0
   19.7432   13.8335   33.7959 O   0  0  0  0  0  0
   15.1512   16.3149   30.2264 C   0  0  0  0  0  0
   16.1871   15.4283   30.6410 C   0  0  0  0  0  0
   12.9462   19.0134   31.8856 C   0  0  0  0  0  0
   14.2251   17.8912   33.5908 C   0  0  0  0  0  0
   13.5421   18.1159   30.8406 C   0  0  0  0  0  0
   14.4484   17.8279   34.7911 O   0  0  0  0  0  0
   14.7209   16.4444   28.8871 C   0  0  0  0  0  0
   12.1919   19.9593   31.6685 O   0  0  0  0  0  0
   14.5384   17.1508   31.1979 C   0  0  0  0  0  0
   13.2753   18.7591   33.1793 O   0  0  0  0  0  0
   16.6271   15.4206   31.9703 C   0  0  0  0  0  0
   13.1972   18.2380   29.4945 C   0  0  0  0  0  0
   15.9682   16.2195   32.9076 C   0  0  0  0  0  0
   13.7919   17.4267   28.5349 C   0  0  0  0  0  0
   14.9233   17.0723   32.5603 C   0  0  0  0  0  0
   17.7287   14.6166   32.3259 N   0  0  0  0  0  0
   17.4134   13.7083   34.9815 C   0  0  0  0  0  0
   16.4929   14.3532   35.8097 C   0  0  0  0  0  0
   15.5658   13.6088   36.5350 C   0  0  0  0  0  0
   15.5782   12.2180   36.4619 C   0  0  0  0  0  0
   16.5197   11.5505   35.6639 C   0  0  0  0  0  0
   17.4368   12.3137   34.9245 C   0  0  0  0  0  0
   16.5375   10.0738   35.5910 N   0  3  0  0  0  0
   15.7920    9.4387   36.3320 O   0  0  0  0  0  0
   17.2977    9.5382   34.7910 O   0  5  0  0  0  0
   16.6723   14.8063   29.9017 H   0  0  0  0  0  0
   15.1552   15.8089   28.1284 H   0  0  0  0  0  0
   12.4663   18.9724   29.1783 H   0  0  0  0  0  0
   16.2723   16.2049   33.9356 H   0  0  0  0  0  0
   13.5072   17.5378   27.4985 H   0  0  0  0  0  0
   18.0851   13.9493   31.6557 H   0  0  0  0  0  0
   16.4783   15.4279   35.8986 H   0  0  0  0  0  0
   14.8496   14.1152   37.1653 H   0  0  0  0  0  0
   14.8565   11.6605   37.0423 H   0  0  0  0  0  0
   18.1626   11.8271   34.2851 H   0  0  0  0  0  0
  1  2  2  0  0  0
  2  3  2  0  0  0
  2 19  1  0  0  0
  2 20  1  0  0  0
  4 10  2  0  0  0
  4 12  1  0  0  0
  4  5  1  0  0  0
  5 14  2  0  0  0
  5 29  1  0  0  0
  6  8  1  0  0  0
  6 11  2  0  0  0
  6 13  1  0  0  0
  7 18  1  0  0  0
  7 13  1  0  0  0
  7  9  2  0  0  0
  8 15  1  0  0  0
  8 12  2  0  0  0
 10 17  1  0  0  0
 10 30  1  0  0  0
 12 18  1  0  0  0
 14 16  1  0  0  0
 14 19  1  0  0  0
 15 17  2  0  0  0
 15 31  1  0  0  0
 16 18  2  0  0  0
 16 32  1  0  0  0
 17 33  1  0  0  0
 19 34  1  0  0  0
 20 21  2  0  0  0
 20 25  1  0  0  0
 21 22  1  0  0  0
 21 35  1  0  0  0
 22 23  2  0  0  0
 22 36  1  0  0  0
 23 24  1  0  0  0
 23 37  1  0  0  0
 24 25  2  0  0  0
 24 26  1  0  0  0
 25 38  1  0  0  0
 26 27  2  0  0  0
 26 28  1  0  0  0
M  CHG  2  26   1  28  -1
M  END
> <s_m_entry_id>
40986

> <s_m_entry_name>
dock_pv.103

> <s_m_Source_Path>
/home/csk/Desktop/cluster/DUD-E-result/tysy

> <s_m_Source_File>
dock_pv.maegz

> <i_m_Source_File_Index>
103

> <chembl_id>
CHEMBL2323389

> <chembl_pref_name>
None

> <i_lp_mmshare_version>
53161

> <r_lp_tautomer_probability>
1

> <s_lp_Force_Field>
OPLS_2005

> <r_lp_Energy>
36.351648

> <b_lp_Chiralities_Consistent>
1

> <s_lp_Variant>
CHEMBL1952_lig469-1

> <s_i_glide_gridfile>
glide-grid_1syn

> <i_i_glide_lignum>
899

> <i_i_glide_rotatable_bonds>
4

> <r_i_docking_score>
-8.45797868717785

> <r_i_glide_ligand_efficiency>
-0.302070667399209

> <r_i_glide_ligand_efficiency_sa>
-0.917264456332721

> <r_i_glide_ligand_efficiency_ln>
-1.95234981804582

> <r_i_glide_gscore>
-8.45797868717785

> <r_i_glide_lipo>
-4.01444908793941

> <r_i_glide_hbond>
0

> <r_i_glide_metal>
0

> <r_i_glide_rewards>
-1.76977545500994

> <r_i_glide_evdw>
-53.4457359313965

> <r_i_glide_ecoul>
-1.81144034862518

> <r_i_glide_erotb>
0.370248704635098

> <r_i_glide_esite>
-0.1

> <r_i_glide_emodel>
-81.7626646161275

> <r_i_glide_energy>
-55.2571762800217

> <r_i_glide_einternal>
0.827324390411377

> <i_i_glide_confnum>
12

> <i_i_glide_posenum>
151

> <r_i_glide_eff_state_penalty>
0

> <s_user_duplicate_titles>
CHEMBL1952_lig469

> <i_f3d_flags>
0

> <s_m_subgroup_title>
dock_pv

> <s_m_subgroupid>
dock_pv

> <b_m_subgroup_collapsed>
1

$$$$
CHEMBL1952_lig316 
                    3D
 Schrodinger Suite 2021-1.
 45 48  0  0  1  0            999 V2000
   13.6393   18.8304   32.7913 N   0  0  0  0  0  0
   12.9923   18.6883   31.5843 C   0  0  0  0  0  0
   13.3098   17.7374   30.7684 N   0  0  0  0  0  0
   14.6752   18.0881   33.2857 C   0  0  0  0  0  0
   15.0952   17.0744   32.3244 C   0  0  0  0  0  0
   14.3615   16.9522   31.1458 C   0  0  0  0  0  0
   14.9044   15.9352   30.4153 N   0  0  0  0  0  0
   15.9801   15.4310   31.1073 C   0  0  0  0  0  0
   16.1449   16.1325   32.3076 C   0  0  0  0  0  0
   15.1380   18.3270   34.3911 O   0  0  0  0  0  0
   11.9987   19.6316   31.2808 N   0  0  0  0  0  0
   17.2551   15.9496   33.3308 C   0  0  0  0  0  0
   17.0201   14.7489   34.2224 C   0  0  0  0  0  0
   17.7933   13.6024   34.0531 C   0  0  0  0  0  0
   17.5224   12.4735   34.8129 C   0  0  0  0  0  0
   16.4679   12.4728   35.7386 C   0  0  0  0  0  0
   15.7406   13.6570   35.9501 C   0  0  0  0  0  0
   16.0157   14.7883   35.1908 C   0  0  0  0  0  0
   16.1270   11.1895   36.4598 C   0  0  0  0  0  0
   16.8912   10.2269   36.3914 O   0  0  0  0  0  0
   14.9683   11.1659   37.1565 N   0  0  0  0  0  0
   14.4355   10.0680   37.8647 C   0  0  0  0  0  0
   14.0587   10.3202   39.1878 C   0  0  0  0  0  0
   13.5387    9.3042   39.9885 C   0  0  0  0  0  0
   13.3653    8.0261   39.4617 C   0  0  0  0  0  0
   13.6928    7.7684   38.1321 C   0  0  0  0  0  0
   14.2148    8.7806   37.3188 C   0  0  0  0  0  0
   14.4236    8.4701   35.9095 C   0  0  0  0  0  0
   14.5886    8.2278   34.7910 N   0  0  0  0  0  0
   13.3673   19.5897   33.4047 H   0  0  0  0  0  0
   14.5759   15.6290   29.5111 H   0  0  0  0  0  0
   16.5626   14.6268   30.6818 H   0  0  0  0  0  0
   11.3247   19.4263   30.5509 H   0  0  0  0  0  0
   11.5756   20.1470   32.0379 H   0  0  0  0  0  0
   17.3708   16.8205   33.9804 H   0  0  0  0  0  0
   18.2130   15.8309   32.8221 H   0  0  0  0  0  0
   18.5825   13.5644   33.3139 H   0  0  0  0  0  0
   18.1180   11.5876   34.6391 H   0  0  0  0  0  0
   14.9366   13.7195   36.6695 H   0  0  0  0  0  0
   15.4287   15.6852   35.3347 H   0  0  0  0  0  0
   14.5491   12.0618   37.3455 H   0  0  0  0  0  0
   14.1909   11.3064   39.6092 H   0  0  0  0  0  0
   13.2678    9.5063   41.0139 H   0  0  0  0  0  0
   12.9560    7.2376   40.0774 H   0  0  0  0  0  0
   13.5131    6.7767   37.7369 H   0  0  0  0  0  0
  1  2  1  0  0  0
  1  4  1  0  0  0
  1 30  1  0  0  0
  2  3  2  0  0  0
  2 11  1  0  0  0
  3  6  1  0  0  0
  4  5  1  0  0  0
  4 10  2  0  0  0
  5  6  2  0  0  0
  5  9  1  0  0  0
  6  7  1  0  0  0
  7  8  1  0  0  0
  7 31  1  0  0  0
  8  9  2  0  0  0
  8 32  1  0  0  0
  9 12  1  0  0  0
 11 33  1  0  0  0
 11 34  1  0  0  0
 12 13  1  0  0  0
 12 35  1  0  0  0
 12 36  1  0  0  0
 13 14  2  0  0  0
 13 18  1  0  0  0
 14 15  1  0  0  0
 14 37  1  0  0  0
 15 16  2  0  0  0
 15 38  1  0  0  0
 16 17  1  0  0  0
 16 19  1  0  0  0
 17 18  2  0  0  0
 17 39  1  0  0  0
 18 40  1  0  0  0
 19 20  2  0  0  0
 19 21  1  0  0  0
 21 22  1  0  0  0
 21 41  1  0  0  0
 22 23  2  0  0  0
 22 27  1  0  0  0
 23 24  1  0  0  0
 23 42  1  0  0  0
 24 25  2  0  0  0
 24 43  1  0  0  0
 25 26  1  0  0  0
 25 44  1  0  0  0
 26 27  2  0  0  0
 26 45  1  0  0  0
 27 28  1  0  0  0
 28 29  3  0  0  0
M  END
> <s_m_entry_id>
40987

> <s_m_entry_name>
dock_pv.104

> <s_m_Source_Path>
/home/csk/Desktop/cluster/DUD-E-result/tysy

> <s_m_Source_File>
dock_pv.maegz

> <i_m_Source_File_Index>
104

> <chembl_id>
CHEMBL4570994

> <chembl_pref_name>
None

> <i_lp_mmshare_version>
53161

> <r_lp_tautomer_probability>
1

> <s_lp_Force_Field>
OPLS_2005

> <r_lp_Energy>
30.429572

> <b_lp_Chiralities_Consistent>
1

> <s_lp_Variant>
CHEMBL1952_lig316 -1

> <s_i_glide_gridfile>
glide-grid_1syn

> <i_i_glide_lignum>
588

> <i_i_glide_rotatable_bonds>
5

> <r_i_docking_score>
-8.45655712772196

> <r_i_glide_ligand_efficiency>
-0.291605418197309

> <r_i_glide_ligand_efficiency_sa>
-0.895904231783159

> <r_i_glide_ligand_efficiency_ln>
-1.93633714246194

> <r_i_glide_gscore>
-8.45655712772196

> <r_i_glide_lipo>
-2.7889145826321

> <r_i_glide_hbond>
-0.470628016757466

> <r_i_glide_metal>
0

> <r_i_glide_rewards>
-2.06769909434084

> <r_i_glide_evdw>
-49.1259918212891

> <r_i_glide_ecoul>
-8.87284755706787

> <r_i_glide_erotb>
0.657911290633074

> <r_i_glide_esite>
0

> <r_i_glide_emodel>
-84.3053638864573

> <r_i_glide_energy>
-57.9988393783569

> <r_i_glide_einternal>
6.77221536636353

> <i_i_glide_confnum>
109

> <i_i_glide_posenum>
273

> <r_i_glide_eff_state_penalty>
0

> <s_user_duplicate_titles>
CHEMBL1952_lig316 

> <i_f3d_flags>
0

> <s_m_subgroup_title>
dock_pv

> <s_m_subgroupid>
dock_pv

> <b_m_subgroup_collapsed>
1

$$$$
CHEMBL1952_lig256
                    3D
 Schrodinger Suite 2021-1.
 56 58  0  0  1  0            999 V2000
   16.5702   15.5660   33.1708 C   0  0  0  0  0  0
   15.8833   16.7971   32.9995 C   0  0  0  0  0  0
   16.1989   17.8233   33.5910 O   0  0  0  0  0  0
   14.8805   16.7195   32.1220 N   0  0  0  0  0  0
   14.0241   17.8377   31.7239 C   0  0  1  0  0  0
   13.1452   17.4260   30.5155 C   0  0  0  0  0  0
   13.2174   18.4181   32.9083 C   0  0  0  0  0  0
   12.8454   19.6969   32.6302 O   0  0  0  0  0  0
   12.9933   17.8286   33.9490 O   0  0  0  0  0  0
   13.9438   17.0129   29.2500 C   0  0  0  0  0  0
   14.5914   15.6215   29.3232 C   0  0  0  0  0  0
   13.6746   14.6471   29.5909 O   0  0  0  0  0  0
   15.7934   15.4150   29.1885 O   0  0  0  0  0  0
   12.1939    8.6301   35.6942 N   0  0  0  0  0  0
   11.3097    9.5638   36.1568 C   0  0  0  0  0  0
   11.7054   10.7164   36.5524 N   0  0  0  0  0  0
   13.5367    8.7559   35.5905 C   0  0  0  0  0  0
   14.2171    7.8555   35.1055 O   0  0  0  0  0  0
   14.0264   10.1125   36.0424 C   0  0  0  0  0  0
   13.0700   11.0381   36.4820 C   0  0  0  0  0  0
   13.4649   12.3137   36.8685 C   0  0  0  0  0  0
   15.7664   11.7633   36.3179 C   0  0  0  0  0  0
   15.3768   10.4657   35.9688 C   0  0  0  0  0  0
   17.2350   12.1586   36.2436 C   0  0  0  0  0  0
   17.7294   12.3506   34.8701 N   0  0  0  0  0  0
    9.8407    9.2164   36.1603 C   0  0  0  0  0  0
   17.4039   13.4718   34.1183 C   0  0  0  0  0  0
   16.5919   14.8786   34.7647 S   0  0  0  0  0  0
   17.1945   14.8490   32.2693 N   0  0  0  0  0  0
   17.6664   13.7264   32.7681 C   0  0  0  0  0  0
   18.9921   11.6751   34.5512 C   0  0  0  0  0  0
   19.1341   10.1917   34.9225 C   0  0  0  0  0  0
   14.8124   12.6750   36.7886 C   0  0  0  0  0  0
   18.1925    9.4275   34.3786 F   0  0  0  0  0  0
   14.6617   15.8264   31.7123 H   0  0  0  0  0  0
   14.6984   18.6281   31.3916 H   0  0  0  0  0  0
   12.4961   18.2610   30.2399 H   0  0  0  0  0  0
   12.4696   16.6197   30.8024 H   0  0  0  0  0  0
   12.5923   20.1476   33.4508 H   0  0  0  0  0  0
   14.7126   17.7536   29.0345 H   0  0  0  0  0  0
   13.2753   17.0278   28.3896 H   0  0  0  0  0  0
   14.0385   13.7548   29.5929 H   0  0  0  0  0  0
   11.8276    7.7833   35.2775 H   0  0  0  0  0  0
   12.7279   13.0245   37.2101 H   0  0  0  0  0  0
   16.1106    9.7559   35.6105 H   0  0  0  0  0  0
   17.7864   11.3985   36.7898 H   0  0  0  0  0  0
   17.3906   13.0849   36.7908 H   0  0  0  0  0  0
    9.3289    9.7049   35.3280 H   0  0  0  0  0  0
    9.6741    8.1417   36.0721 H   0  0  0  0  0  0
    9.3645    9.5457   37.0859 H   0  0  0  0  0  0
   18.1916   13.0625   32.0951 H   0  0  0  0  0  0
   18.9957   11.6451   33.4634 H   0  0  0  0  0  0
   19.8674   12.2593   34.8389 H   0  0  0  0  0  0
   20.1026    9.8274   34.5808 H   0  0  0  0  0  0
   19.1089   10.0141   35.9966 H   0  0  0  0  0  0
   15.1101   13.6709   37.0852 H   0  0  0  0  0  0
  1  2  1  0  0  0
  1 28  1  0  0  0
  1 29  2  0  0  0
  2  3  2  0  0  0
  2  4  1  0  0  0
  4  5  1  0  0  0
  4 35  1  0  0  0
  5  6  1  0  0  0
  5  7  1  0  0  0
  5 36  1  0  0  0
  6 10  1  0  0  0
  6 37  1  0  0  0
  6 38  1  0  0  0
  7  9  2  0  0  0
  7  8  1  0  0  0
  8 39  1  0  0  0
 10 11  1  0  0  0
 10 40  1  0  0  0
 10 41  1  0  0  0
 11 12  1  0  0  0
 11 13  2  0  0  0
 12 42  1  0  0  0
 14 15  1  0  0  0
 14 17  1  0  0  0
 14 43  1  0  0  0
 15 26  1  0  0  0
 15 16  2  0  0  0
 16 20  1  0  0  0
 17 19  1  0  0  0
 17 18  2  0  0  0
 19 20  2  0  0  0
 19 23  1  0  0  0
 20 21  1  0  0  0
 21 33  2  0  0  0
 21 44  1  0  0  0
 22 33  1  0  0  0
 22 23  2  0  0  0
 22 24  1  0  0  0
 23 45  1  0  0  0
 24 25  1  0  0  0
 24 46  1  0  0  0
 24 47  1  0  0  0
 25 27  1  0  0  0
 25 31  1  0  0  0
 26 48  1  0  0  0
 26 49  1  0  0  0
 26 50  1  0  0  0
 27 28  1  0  0  0
 27 30  2  0  0  0
 29 30  1  0  0  0
 30 51  1  0  0  0
 31 32  1  0  0  0
 31 52  1  0  0  0
 31 53  1  0  0  0
 32 34  1  0  0  0
 32 54  1  0  0  0
 32 55  1  0  0  0
 33 56  1  0  0  0
M  END
> <s_m_entry_id>
40988

> <s_m_entry_name>
dock_pv.105

> <s_m_Source_Path>
/home/csk/Desktop/cluster/DUD-E-result/tysy

> <s_m_Source_File>
dock_pv.maegz

> <i_m_Source_File_Index>
105

> <chembl_id>
CHEMBL1094274

> <chembl_pref_name>
None

> <i_lp_mmshare_version>
53161

> <r_lp_tautomer_probability>
0.883938

> <s_lp_Force_Field>
OPLS_2005

> <r_lp_Energy>
21.721712

> <b_lp_Chiralities_Consistent>
1

> <s_lp_Variant>
CHEMBL1952_lig256-1

> <s_i_glide_gridfile>
glide-grid_1syn

> <i_i_glide_lignum>
508

> <i_i_glide_rotatable_bonds>
14

> <r_i_docking_score>
-8.45483795760129

> <r_i_glide_ligand_efficiency>
-0.248671704635332

> <r_i_glide_ligand_efficiency_sa>
-0.805599788033465

> <r_i_glide_ligand_efficiency_ln>
-1.86791085500602

> <r_i_glide_gscore>
-8.45483795760129

> <r_i_glide_lipo>
-2.35568461321406

> <r_i_glide_hbond>
-0.600979366109705

> <r_i_glide_metal>
0

> <r_i_glide_rewards>
-1.28237016598696

> <r_i_glide_evdw>
-52.426155090332

> <r_i_glide_ecoul>
-16.4797744750977

> <r_i_glide_erotb>
0.927023445982225

> <r_i_glide_esite>
-0.0495533324915404

> <r_i_glide_emodel>
-97.6092413563378

> <r_i_glide_energy>
-68.9059295654297

> <r_i_glide_einternal>
12.3130922317505

> <i_i_glide_confnum>
79

> <i_i_glide_posenum>
243

> <r_i_glide_eff_state_penalty>
0

> <s_user_duplicate_titles>
CHEMBL1952_lig256,625068

> <i_f3d_flags>
0

> <s_m_subgroup_title>
dock_pv

> <s_m_subgroupid>
dock_pv

> <b_m_subgroup_collapsed>
1

$$$$
CHEMBL1952_lig68
                    3D
 Schrodinger Suite 2021-1.
 28 30  0  0  1  0            999 V2000
   14.7026   17.1113   32.2120 C   0  0  0  0  0  0
   14.4693   18.0863   33.2882 C   0  0  0  0  0  0
   13.8971   17.2229   31.1086 C   0  0  0  0  0  0
   15.7913   16.0744   32.2510 C   0  0  0  0  0  0
   12.9828   18.2279   30.9401 N   0  0  0  0  0  0
   13.5528   19.0277   33.0086 N   0  0  0  0  0  0
   12.8522   19.1191   31.8545 C   0  0  0  0  0  0
   16.1664   15.4283   31.0507 C   0  0  0  0  0  0
   14.9932   18.1309   34.3905 O   0  0  0  0  0  0
   16.4349   15.6887   33.4407 C   0  0  0  0  0  0
   14.0487   16.2633   29.9315 C   0  0  0  0  0  0
   15.5234   15.8576   29.7355 C   0  0  0  0  0  0
   17.1471   14.4316   31.0755 C   0  0  0  0  0  0
   17.4303   14.7150   33.4452 C   0  0  0  0  0  0
   17.7877   14.0833   32.2609 C   0  0  0  0  0  0
   18.0383   14.3777   34.6048 F   0  0  0  0  0  0
   11.9144   20.2901   31.7038 C   0  0  0  0  0  0
   13.3927   19.6958   33.7582 H   0  0  0  0  0  0
   16.1766   16.1184   34.3924 H   0  0  0  0  0  0
   13.6626   16.7077   29.0132 H   0  0  0  0  0  0
   13.4338   15.3859   30.1322 H   0  0  0  0  0  0
   15.6042   15.0748   28.9790 H   0  0  0  0  0  0
   16.0770   16.7164   29.3520 H   0  0  0  0  0  0
   17.4286   13.9330   30.1600 H   0  0  0  0  0  0
   18.5602   13.3259   32.2588 H   0  0  0  0  0  0
   11.6234   20.4339   30.6627 H   0  0  0  0  0  0
   11.0059   20.1356   32.2861 H   0  0  0  0  0  0
   12.3830   21.2146   32.0422 H   0  0  0  0  0  0
  1  2  1  0  0  0
  1  4  1  0  0  0
  1  3  2  0  0  0
  2  9  2  0  0  0
  2  6  1  0  0  0
  3 11  1  0  0  0
  3  5  1  0  0  0
  4  8  2  0  0  0
  4 10  1  0  0  0
  5  7  2  0  0  0
  6  7  1  0  0  0
  6 18  1  0  0  0
  7 17  1  0  0  0
  8 12  1  0  0  0
  8 13  1  0  0  0
 10 14  2  0  0  0
 10 19  1  0  0  0
 11 12  1  0  0  0
 11 20  1  0  0  0
 11 21  1  0  0  0
 12 22  1  0  0  0
 12 23  1  0  0  0
 13 15  2  0  0  0
 13 24  1  0  0  0
 14 15  1  0  0  0
 14 16  1  0  0  0
 15 25  1  0  0  0
 17 26  1  0  0  0
 17 27  1  0  0  0
 17 28  1  0  0  0
M  END
> <s_m_entry_id>
40989

> <s_m_entry_name>
dock_pv.106

> <s_m_Source_Path>
/home/csk/Desktop/cluster/DUD-E-result/tysy

> <s_m_Source_File>
dock_pv.maegz

> <i_m_Source_File_Index>
106

> <chembl_id>
CHEMBL307518

> <chembl_pref_name>
None

> <i_lp_mmshare_version>
53161

> <r_lp_tautomer_probability>
0.839158042097895

> <s_lp_Force_Field>
OPLS_2005

> <r_lp_Energy>
21.073474

> <b_lp_Chiralities_Consistent>
1

> <s_lp_Variant>
CHEMBL1952_lig68-1

> <s_i_glide_gridfile>
glide-grid_1syn

> <i_i_glide_lignum>
102

> <i_i_glide_rotatable_bonds>
0

> <r_i_docking_score>
-8.45213548767767

> <r_i_glide_ligand_efficiency>
-0.497184440451628

> <r_i_glide_ligand_efficiency_sa>
-1.27840119768766

> <r_i_glide_ligand_efficiency_ln>
-2.20497392893186

> <r_i_glide_gscore>
-8.45213548767767

> <r_i_glide_lipo>
-3.1039814999957

> <r_i_glide_hbond>
-0.16

> <r_i_glide_metal>
0

> <r_i_glide_rewards>
-2.76659277921232

> <r_i_glide_evdw>
-35.763801574707

> <r_i_glide_ecoul>
-4.09485197067261

> <r_i_glide_erotb>
0

> <r_i_glide_esite>
-0.019143334133418

> <r_i_glide_emodel>
-61.0898540364167

> <r_i_glide_energy>
-39.8586535453796

> <r_i_glide_einternal>
0

> <i_i_glide_confnum>
1

> <i_i_glide_posenum>
290

> <r_i_glide_eff_state_penalty>
0

> <s_user_duplicate_titles>
CHEMBL1952_lig68,CHEMBL1952_lig68

> <i_f3d_flags>
0

> <s_m_subgroup_title>
dock_pv

> <s_m_subgroupid>
dock_pv

> <b_m_subgroup_collapsed>
1

$$$$
CHEMBL1952_lig405
                    3D
 Schrodinger Suite 2021-1.
 33 35  0  0  1  0            999 V2000
   14.9173   17.1228   32.1407 C   0  0  0  0  0  0
   14.5751   18.1058   33.2566 C   0  0  0  0  0  0
   13.6177   18.9934   32.9166 N   0  0  0  0  0  0
   15.9267   16.1321   32.2255 C   0  0  0  0  0  0
   13.1765   18.2278   30.7944 N   0  0  0  0  0  0
   14.1581   17.2406   30.9650 C   0  0  0  0  0  0
   12.9651   19.0774   31.7271 C   0  0  0  0  0  0
   17.0692   16.0462   33.5912 S   0  0  0  0  0  0
   16.1265   15.2634   31.1307 C   0  0  0  0  0  0
   15.0320   18.1595   34.3900 O   0  0  0  0  0  0
   14.3720   16.3841   29.8932 C   0  0  0  0  0  0
   14.5259   14.0687   36.0464 N   0  0  0  0  0  0
   15.3436   15.3937   29.9801 C   0  0  0  0  0  0
   16.3722   14.8445   34.6855 C   0  0  0  0  0  0
   11.9687   20.1959   31.5536 C   0  0  0  0  0  0
   15.0741   14.9700   35.1913 C   0  0  0  0  0  0
   15.2855   13.0073   36.4198 C   0  0  0  0  0  0
   17.1844   14.1633   31.1519 C   0  0  0  0  0  0
   17.1422   13.7522   35.0940 C   0  0  0  0  0  0
   16.5929   12.8137   35.9704 C   0  0  0  0  0  0
   13.3911   19.6513   33.6585 H   0  0  0  0  0  0
   13.7910   16.5005   28.9912 H   0  0  0  0  0  0
   15.4974   14.7327   29.1383 H   0  0  0  0  0  0
   11.0176   19.9399   32.0167 H   0  0  0  0  0  0
   12.3295   21.1207   32.0049 H   0  0  0  0  0  0
   11.7882   20.3976   30.4974 H   0  0  0  0  0  0
   14.4414   15.7983   34.9193 H   0  0  0  0  0  0
   14.8294   12.3066   37.1033 H   0  0  0  0  0  0
   17.0744   13.5453   32.0433 H   0  0  0  0  0  0
   17.1045   13.4930   30.2957 H   0  0  0  0  0  0
   18.1876   14.5914   31.1703 H   0  0  0  0  0  0
   18.1533   13.6291   34.7321 H   0  0  0  0  0  0
   17.1724   11.9632   36.2980 H   0  0  0  0  0  0
  1  2  1  0  0  0
  1  4  1  0  0  0
  1  6  2  0  0  0
  2 10  2  0  0  0
  2  3  1  0  0  0
  3  7  1  0  0  0
  3 21  1  0  0  0
  4  8  1  0  0  0
  4  9  2  0  0  0
  5  6  1  0  0  0
  5  7  2  0  0  0
  6 11  1  0  0  0
  7 15  1  0  0  0
  8 14  1  0  0  0
  9 18  1  0  0  0
  9 13  1  0  0  0
 11 13  2  0  0  0
 11 22  1  0  0  0
 12 16  2  0  0  0
 12 17  1  0  0  0
 13 23  1  0  0  0
 14 16  1  0  0  0
 14 19  2  0  0  0
 15 24  1  0  0  0
 15 25  1  0  0  0
 15 26  1  0  0  0
 16 27  1  0  0  0
 17 20  2  0  0  0
 17 28  1  0  0  0
 18 29  1  0  0  0
 18 30  1  0  0  0
 18 31  1  0  0  0
 19 20  1  0  0  0
 19 32  1  0  0  0
 20 33  1  0  0  0
M  END
> <s_m_entry_id>
40990

> <s_m_entry_name>
dock_pv.107

> <s_m_Source_Path>
/home/csk/Desktop/cluster/DUD-E-result/tysy

> <s_m_Source_File>
dock_pv.maegz

> <i_m_Source_File_Index>
107

> <chembl_id>
CHEMBL162498

> <chembl_pref_name>
None

> <i_lp_mmshare_version>
53161

> <r_lp_tautomer_probability>
0.883938

> <s_lp_Force_Field>
OPLS_2005

> <r_lp_Energy>
22.391712

> <b_lp_Chiralities_Consistent>
1

> <s_lp_Variant>
CHEMBL1952_lig405-1

> <s_i_glide_gridfile>
glide-grid_1syn

> <i_i_glide_lignum>
794

> <i_i_glide_rotatable_bonds>
2

> <r_i_docking_score>
-8.44682746128392

> <r_i_glide_ligand_efficiency>
-0.422341373064196

> <r_i_glide_ligand_efficiency_sa>
-1.14641086211755

> <r_i_glide_ligand_efficiency_ln>
-2.11396231854416

> <r_i_glide_gscore>
-8.44682746128392

> <r_i_glide_lipo>
-4.08898572208023

> <r_i_glide_hbond>
-0.16

> <r_i_glide_metal>
0

> <r_i_glide_rewards>
-1.99829436958548

> <r_i_glide_evdw>
-42.3629989624023

> <r_i_glide_ecoul>
-3.49171900749207

> <r_i_glide_erotb>
0.451106904823686

> <r_i_glide_esite>
-0.00874647519796572

> <r_i_glide_emodel>
-69.4753893975318

> <r_i_glide_energy>
-45.8547179698944

> <r_i_glide_einternal>
1.13625419139862

> <i_i_glide_confnum>
2

> <i_i_glide_posenum>
252

> <r_i_glide_eff_state_penalty>
0

> <s_user_duplicate_titles>
CHEMBL1952_lig405,CHEMBL1952_lig405,273191

> <i_f3d_flags>
0

> <s_m_subgroup_title>
dock_pv

> <s_m_subgroupid>
dock_pv

> <b_m_subgroup_collapsed>
1

$$$$
CHEMBL1952_lig18
                    3D
 Schrodinger Suite 2021-1.
 54 56  0  0  1  0            999 V2000
   19.9630   14.1290   33.6245 C   0  0  0  0  0  0
   18.6702   14.0951   34.3031 N   0  0  0  0  0  0
   17.9881   15.3878   34.3671 C   0  0  0  0  0  0
   17.0214   15.6522   33.2094 C   0  0  0  0  0  0
   17.1316   15.0214   31.9550 C   0  0  0  0  0  0
   16.2456   15.3359   30.9196 C   0  0  0  0  0  0
   15.2549   16.2913   31.1222 C   0  0  0  0  0  0
   14.4057   16.6274   30.0524 N   0  0  0  0  0  0
   13.5063   17.5262   30.2214 C   0  0  0  0  0  0
   13.3470   18.1527   31.4252 N   0  0  0  0  0  0
   14.0638   17.9435   32.5520 C   0  0  0  0  0  0
   13.8315   18.5491   33.5889 O   0  0  0  0  0  0
   15.1412   16.9094   32.3704 C   0  0  0  0  0  0
   16.0065   16.5895   33.4150 C   0  0  0  0  0  0
   12.5924   17.9104   29.0856 C   0  0  0  0  0  0
   18.1750   12.9306   34.8615 C   0  0  0  0  0  0
   18.8009   11.6897   34.9404 C   0  0  0  0  0  0
   18.0262   10.7078   35.5606 C   0  0  0  0  0  0
   16.7563   11.1555   35.9138 C   0  0  0  0  0  0
   16.5911   12.8594   35.5909 S   0  0  0  0  0  0
   15.7114   10.3887   36.5403 C   0  0  0  0  0  0
   15.9690    9.4282   37.2633 O   0  0  0  0  0  0
   14.4615   10.7899   36.2496 N   0  0  0  0  0  0
   13.2334   10.0940   36.6477 C   0  0  1  0  0  0
   12.1512   11.1674   36.9544 C   0  0  0  0  0  0
   10.9590   10.6590   37.7959 C   0  0  0  0  0  0
   10.1515   11.8084   38.4007 C   0  0  0  0  0  0
   10.1918   12.1146   39.5910 O   0  0  0  0  0  0
    9.3924   12.4574   37.4707 O   0  0  0  0  0  0
   12.8944    9.0053   35.5902 C   0  0  0  0  0  0
   13.7127    8.2270   35.1407 O   0  0  0  0  0  0
   11.5851    9.0331   35.2153 O   0  0  0  0  0  0
   19.9749   13.4290   32.7909 H   0  0  0  0  0  0
   20.1604   15.1068   33.1865 H   0  0  0  0  0  0
   20.7826   13.9419   34.3193 H   0  0  0  0  0  0
   17.4362   15.4278   35.3070 H   0  0  0  0  0  0
   18.7116   16.2051   34.4243 H   0  0  0  0  0  0
   17.9084   14.2934   31.7696 H   0  0  0  0  0  0
   16.3394   14.8516   29.9589 H   0  0  0  0  0  0
   12.6415   18.8637   31.5198 H   0  0  0  0  0  0
   15.8989   17.0767   34.3755 H   0  0  0  0  0  0
   11.9744   17.0607   28.7946 H   0  0  0  0  0  0
   11.9241   18.7332   29.3470 H   0  0  0  0  0  0
   13.1665   18.2169   28.2120 H   0  0  0  0  0  0
   19.7915   11.4985   34.5609 H   0  0  0  0  0  0
   18.3768    9.6989   35.7051 H   0  0  0  0  0  0
   14.3470   11.5838   35.6382 H   0  0  0  0  0  0
   13.4405    9.5615   37.5767 H   0  0  0  0  0  0
   11.7890   11.6023   36.0204 H   0  0  0  0  0  0
   12.6121   12.0011   37.4884 H   0  0  0  0  0  0
   11.3287   10.0527   38.6227 H   0  0  0  0  0  0
   10.2983   10.0126   37.2171 H   0  0  0  0  0  0
    9.4791   12.0897   36.5880 H   0  0  0  0  0  0
   11.3933    8.3245   34.5776 H   0  0  0  0  0  0
  1  2  1  0  0  0
  1 33  1  0  0  0
  1 34  1  0  0  0
  1 35  1  0  0  0
  2  3  1  0  0  0
  2 16  1  0  0  0
  3 36  1  0  0  0
  3 37  1  0  0  0
  3  4  1  0  0  0
  4 14  2  0  0  0
  4  5  1  0  0  0
  5 38  1  0  0  0
  5  6  2  0  0  0
  6 39  1  0  0  0
  6  7  1  0  0  0
  7 13  2  0  0  0
  7  8  1  0  0  0
  8  9  2  0  0  0
  9 15  1  0  0  0
  9 10  1  0  0  0
 10 40  1  0  0  0
 10 11  1  0  0  0
 11 12  2  0  0  0
 11 13  1  0  0  0
 13 14  1  0  0  0
 14 41  1  0  0  0
 15 42  1  0  0  0
 15 43  1  0  0  0
 15 44  1  0  0  0
 16 17  2  0  0  0
 16 20  1  0  0  0
 17 18  1  0  0  0
 17 45  1  0  0  0
 18 19  2  0  0  0
 18 46  1  0  0  0
 19 20  1  0  0  0
 19 21  1  0  0  0
 21 22  2  0  0  0
 21 23  1  0  0  0
 23 24  1  0  0  0
 23 47  1  0  0  0
 24 25  1  0  0  0
 24 30  1  0  0  0
 24 48  1  0  0  0
 25 26  1  0  0  0
 25 49  1  0  0  0
 25 50  1  0  0  0
 26 27  1  0  0  0
 26 51  1  0  0  0
 26 52  1  0  0  0
 27 28  2  0  0  0
 27 29  1  0  0  0
 29 53  1  0  0  0
 30 31  2  0  0  0
 30 32  1  0  0  0
 32 54  1  0  0  0
M  END
> <s_m_entry_id>
40991

> <s_m_entry_name>
dock_pv.108

> <s_m_Source_Path>
/home/csk/Desktop/cluster/DUD-E-result/tysy

> <s_m_Source_File>
dock_pv.maegz

> <i_m_Source_File_Index>
108

> <chembl_id>
CHEMBL225071

> <chembl_pref_name>
RALTITREXED

> <i_lp_mmshare_version>
53161

> <r_lp_tautomer_probability>
0.883938

> <s_lp_Force_Field>
OPLS_2005

> <r_lp_Energy>
15.163652

> <b_lp_Chiralities_Consistent>
1

> <s_lp_Variant>
CHEMBL1952_lig18-1

> <s_i_glide_gridfile>
glide-grid_1syn

> <i_i_glide_lignum>
19

> <i_i_glide_rotatable_bonds>
12

> <r_i_docking_score>
-8.43811132986755

> <r_i_glide_ligand_efficiency>
-0.263690979058361

> <r_i_glide_ligand_efficiency_sa>
-0.8371666741364

> <r_i_glide_ligand_efficiency_ln>
-1.88952314098498

> <r_i_glide_gscore>
-8.43811132986755

> <r_i_glide_lipo>
-3.30506663023109

> <r_i_glide_hbond>
-0.430112723119372

> <r_i_glide_metal>
0

> <r_i_glide_rewards>
-0.853774091049649

> <r_i_glide_evdw>
-51.5119514465332

> <r_i_glide_ecoul>
-14.8400831222534

> <r_i_glide_erotb>
0.95680462189108

> <r_i_glide_esite>
-0.00435246669384091

> <r_i_glide_emodel>
-95.9203312202167

> <r_i_glide_energy>
-66.3520345687866

> <r_i_glide_einternal>
12.0015983581543

> <i_i_glide_confnum>
88

> <i_i_glide_posenum>
328

> <r_i_glide_eff_state_penalty>
0

> <s_user_duplicate_titles>
CHEMBL1952_lig18,CHEMBL1952_lig18,233504,374007

> <i_f3d_flags>
0

> <s_m_subgroup_title>
dock_pv

> <s_m_subgroupid>
dock_pv

> <b_m_subgroup_collapsed>
1

$$$$
CHEMBL1952_lig173
                    3D
 Schrodinger Suite 2021-1.
 33 35  0  0  1  0            999 V2000
   15.7919   12.5565   35.9818 C   0  0  0  0  0  0
   14.9993   13.7050   35.9910 C   0  0  0  0  0  0
   15.3954   14.8217   35.2589 C   0  0  0  0  0  0
   16.5829   14.7777   34.5276 C   0  0  0  0  0  0
   17.3947   13.6443   34.5504 C   0  0  0  0  0  0
   16.9932   12.5269   35.2756 C   0  0  0  0  0  0
   17.0964   16.1760   33.5910 S   0  0  0  0  0  0
   15.8676   16.2513   32.3248 C   0  0  0  0  0  0
   14.6141   15.8942   30.0843 S   0  0  0  0  0  0
   15.8941   15.4282   31.1888 C   0  0  0  0  0  0
   14.0818   17.1685   31.1312 C   0  0  0  0  0  0
   14.8410   17.2146   32.2983 C   0  0  0  0  0  0
   14.4972   18.2293   33.2936 C   0  0  0  0  0  0
   13.4824   19.0279   32.8586 N   0  0  0  0  0  0
   12.7903   18.9544   31.6808 C   0  0  0  0  0  0
   13.0549   18.0247   30.8232 N   0  0  0  0  0  0
   16.8319   14.2717   30.8683 C   0  0  0  0  0  0
   11.7922   19.9226   31.4795 N   0  0  0  0  0  0
   14.9920   18.4393   34.3910 O   0  0  0  0  0  0
   18.3132   14.6866   30.7880 C   0  0  0  0  0  0
   15.2176   11.0004   36.9145 Br  0  0  0  0  0  0
   14.0751   13.7248   36.5481 H   0  0  0  0  0  0
   14.7857   15.7136   35.2571 H   0  0  0  0  0  0
   18.3199   13.6199   33.9912 H   0  0  0  0  0  0
   17.6066   11.6376   35.2794 H   0  0  0  0  0  0
   13.2400   19.7571   33.5214 H   0  0  0  0  0  0
   16.7337   13.5061   31.6372 H   0  0  0  0  0  0
   16.5526   13.7743   29.9382 H   0  0  0  0  0  0
   11.1020   19.7674   30.7520 H   0  0  0  0  0  0
   11.3940   20.3926   32.2761 H   0  0  0  0  0  0
   18.9801   13.8264   30.7888 H   0  0  0  0  0  0
   18.5072   15.2653   29.8867 H   0  0  0  0  0  0
   18.6354   15.2942   31.6260 H   0  0  0  0  0  0
  1  6  1  0  0  0
  1  2  2  0  0  0
  1 21  1  0  0  0
  2  3  1  0  0  0
  2 22  1  0  0  0
  3  4  2  0  0  0
  3 23  1  0  0  0
  4  7  1  0  0  0
  4  5  1  0  0  0
  5  6  2  0  0  0
  5 24  1  0  0  0
  6 25  1  0  0  0
  7  8  1  0  0  0
  8 10  2  0  0  0
  8 12  1  0  0  0
  9 10  1  0  0  0
  9 11  1  0  0  0
 10 17  1  0  0  0
 11 12  2  0  0  0
 11 16  1  0  0  0
 12 13  1  0  0  0
 13 14  1  0  0  0
 13 19  2  0  0  0
 14 15  1  0  0  0
 14 26  1  0  0  0
 15 16  2  0  0  0
 15 18  1  0  0  0
 17 20  1  0  0  0
 17 27  1  0  0  0
 17 28  1  0  0  0
 18 29  1  0  0  0
 18 30  1  0  0  0
 20 31  1  0  0  0
 20 32  1  0  0  0
 20 33  1  0  0  0
M  END
> <s_m_entry_id>
40992

> <s_m_entry_name>
dock_pv.109

> <s_m_Source_Path>
/home/csk/Desktop/cluster/DUD-E-result/tysy

> <s_m_Source_File>
dock_pv.maegz

> <i_m_Source_File_Index>
109

> <chembl_id>
CHEMBL565179

> <chembl_pref_name>
None

> <i_lp_mmshare_version>
53161

> <r_lp_tautomer_probability>
1

> <s_lp_Force_Field>
OPLS_2005

> <r_lp_Energy>
11.949741

> <b_lp_Chiralities_Consistent>
1

> <s_lp_Variant>
CHEMBL1952_lig173-1

> <s_i_glide_gridfile>
glide-grid_1syn

> <i_i_glide_lignum>
350

> <i_i_glide_rotatable_bonds>
3

> <r_i_docking_score>
-8.43101112139007

> <r_i_glide_ligand_efficiency>
-0.401476720066194

> <r_i_glide_ligand_efficiency_sa>
-1.10764382812074

> <r_i_glide_ligand_efficiency_ln>
-2.0845504633016

> <r_i_glide_gscore>
-8.43101112139007

> <r_i_glide_lipo>
-3.78195186260223

> <r_i_glide_hbond>
-0.446738958181517

> <r_i_glide_metal>
0

> <r_i_glide_rewards>
-1.21344420789807

> <r_i_glide_evdw>
-43.5151748657227

> <r_i_glide_ecoul>
-7.10185575485229

> <r_i_glide_erotb>
0.265750040227449

> <r_i_glide_esite>
-0.0135890264217178

> <r_i_glide_emodel>
-76.3862837833998

> <r_i_glide_energy>
-50.617030620575

> <r_i_glide_einternal>
2.81804633140564

> <i_i_glide_confnum>
6

> <i_i_glide_posenum>
136

> <r_i_glide_eff_state_penalty>
0

> <s_user_duplicate_titles>
CHEMBL1952_lig173,558242

> <i_f3d_flags>
0

> <s_m_subgroup_title>
dock_pv

> <s_m_subgroupid>
dock_pv

> <b_m_subgroup_collapsed>
1

$$$$
CHEMBL1952_lig386
                    3D
 Schrodinger Suite 2021-1.
 32 34  0  0  1  0            999 V2000
   14.8942   17.1584   32.1380 C   0  0  0  0  0  0
   14.5502   18.1408   33.2550 C   0  0  0  0  0  0
   13.5923   19.0278   32.9143 N   0  0  0  0  0  0
   15.9003   16.1640   32.2232 C   0  0  0  0  0  0
   13.1588   18.2690   30.7886 N   0  0  0  0  0  0
   14.1408   17.2822   30.9592 C   0  0  0  0  0  0
   12.9445   19.1164   31.7226 C   0  0  0  0  0  0
   17.0393   16.0724   33.5903 S   0  0  0  0  0  0
   16.1008   15.2960   31.1271 C   0  0  0  0  0  0
   15.0039   18.1949   34.3905 O   0  0  0  0  0  0
   14.4792   14.1289   36.0470 N   0  0  0  0  0  0
   15.1935   13.0611   36.4432 N   0  0  0  0  0  0
   14.3594   16.4299   29.8851 C   0  0  0  0  0  0
   15.3235   15.4319   29.9734 C   0  0  0  0  0  0
   16.3223   14.8891   34.6903 C   0  0  0  0  0  0
   15.0247   15.0290   35.1875 C   0  0  0  0  0  0
   17.0704   13.7917   35.1154 C   0  0  0  0  0  0
   11.9650   20.2467   31.5422 C   0  0  0  0  0  0
   16.4637   12.8895   35.9897 C   0  0  0  0  0  0
   17.1538   14.1903   31.1492 C   0  0  0  0  0  0
   13.3676   19.6840   33.6586 H   0  0  0  0  0  0
   13.7911   16.5578   28.9778 H   0  0  0  0  0  0
   15.4782   14.7724   29.1307 H   0  0  0  0  0  0
   14.3932   15.8572   34.9139 H   0  0  0  0  0  0
   18.0832   13.6398   34.7705 H   0  0  0  0  0  0
   11.0118   20.0105   32.0076 H   0  0  0  0  0  0
   12.3405   21.1692   31.9812 H   0  0  0  0  0  0
   11.7906   20.4400   30.4839 H   0  0  0  0  0  0
   16.9921   12.0190   36.3490 H   0  0  0  0  0  0
   17.0733   13.6003   32.0617 H   0  0  0  0  0  0
   17.0432   13.4907   30.3197 H   0  0  0  0  0  0
   18.1583   14.6138   31.1212 H   0  0  0  0  0  0
  1  2  1  0  0  0
  1  4  1  0  0  0
  1  6  2  0  0  0
  2 10  2  0  0  0
  2  3  1  0  0  0
  3  7  1  0  0  0
  3 21  1  0  0  0
  4  8  1  0  0  0
  4  9  2  0  0  0
  5  6  1  0  0  0
  5  7  2  0  0  0
  6 13  1  0  0  0
  7 18  1  0  0  0
  8 15  1  0  0  0
  9 20  1  0  0  0
  9 14  1  0  0  0
 11 16  2  0  0  0
 11 12  1  0  0  0
 12 19  2  0  0  0
 13 14  2  0  0  0
 13 22  1  0  0  0
 14 23  1  0  0  0
 15 16  1  0  0  0
 15 17  2  0  0  0
 16 24  1  0  0  0
 17 19  1  0  0  0
 17 25  1  0  0  0
 18 26  1  0  0  0
 18 27  1  0  0  0
 18 28  1  0  0  0
 19 29  1  0  0  0
 20 30  1  0  0  0
 20 31  1  0  0  0
 20 32  1  0  0  0
M  END
> <s_m_entry_id>
40993

> <s_m_entry_name>
dock_pv.110

> <s_m_Source_Path>
/home/csk/Desktop/cluster/DUD-E-result/tysy

> <s_m_Source_File>
dock_pv.maegz

> <i_m_Source_File_Index>
110

> <chembl_id>
CHEMBL164624

> <chembl_pref_name>
None

> <i_lp_mmshare_version>
53161

> <r_lp_tautomer_probability>
0.883938

> <s_lp_Force_Field>
OPLS_2005

> <r_lp_Energy>
28.135274

> <b_lp_Chiralities_Consistent>
1

> <s_lp_Variant>
CHEMBL1952_lig386-1

> <s_i_glide_gridfile>
glide-grid_1syn

> <i_i_glide_lignum>
766

> <i_i_glide_rotatable_bonds>
2

> <r_i_docking_score>
-8.428685117632

> <r_i_glide_ligand_efficiency>
-0.4214342558816

> <r_i_glide_ligand_efficiency_sa>
-1.14394856725926

> <r_i_glide_ligand_efficiency_ln>
-2.10942188830263

> <r_i_glide_gscore>
-8.428685117632

> <r_i_glide_lipo>
-3.91106455198588

> <r_i_glide_hbond>
-0.16

> <r_i_glide_metal>
0

> <r_i_glide_rewards>
-1.99530113283179

> <r_i_glide_evdw>
-43.9199714660645

> <r_i_glide_ecoul>
-4.00973892211914

> <r_i_glide_erotb>
0.44838364504977

> <r_i_glide_esite>
-0.0132436662430085

> <r_i_glide_emodel>
-72.5680075002266

> <r_i_glide_energy>
-47.9297103881836

> <r_i_glide_einternal>
1.24332463741302

> <i_i_glide_confnum>
2

> <i_i_glide_posenum>
340

> <r_i_glide_eff_state_penalty>
0

> <s_user_duplicate_titles>
CHEMBL1952_lig386,CHEMBL1952_lig386,273190

> <i_f3d_flags>
0

> <s_m_subgroup_title>
dock_pv

> <s_m_subgroupid>
dock_pv

> <b_m_subgroup_collapsed>
1

$$$$
CHEMBL1952_lig334
                    3D
 Schrodinger Suite 2021-1.
 60 63  0  0  1  0            999 V2000
   18.8615   14.4996   33.6822 S   0  0  0  0  0  0
   14.6656   17.2109   31.9084 C   0  0  0  0  0  0
   14.4181   17.9843   33.1062 C   0  0  0  0  0  0
   13.5674   19.0275   33.1122 N   0  0  0  0  0  0
   12.9534   18.6109   30.8296 N   0  0  0  0  0  0
   13.8356   17.5727   30.7926 C   0  0  0  0  0  0
   15.6317   16.1606   31.7410 C   0  0  0  0  0  0
   12.8847   19.2965   31.9890 C   0  0  0  0  0  0
   17.5643   14.8152   32.4862 C   0  0  0  0  0  0
   14.2461   11.2034   37.7046 C   0  0  0  0  0  0
   16.6254   15.8231   32.7152 C   0  0  0  0  0  0
   18.5761   12.8694   34.3158 N   0  0  0  0  0  0
   13.5008   12.1467   38.3175 N   0  0  0  0  0  0
   11.2310   12.9119   39.0655 C   0  0  0  0  0  0
   12.3748   11.8827   39.2321 C   0  0  2  0  0  0
   18.6985   15.4398   34.7909 O   0  0  0  0  0  0
   20.1225   14.4482   32.9437 O   0  0  0  0  0  0
   15.3689   11.6793   36.8005 C   0  0  0  0  0  0
   14.9935   17.6464   34.2916 O   0  0  0  0  0  0
   15.6628   15.4297   30.5089 C   0  0  0  0  0  0
   13.8266   12.8948   42.7897 C   0  0  0  0  0  0
   13.9114   16.8466   29.5906 C   0  0  0  0  0  0
   14.0544    9.9999   37.8799 O   0  0  0  0  0  0
   10.6475   13.4283   39.9979 O   0  0  0  0  0  0
   17.5277   14.0778   31.3129 C   0  0  0  0  0  0
   13.3858   13.7388   43.5659 O   0  0  0  0  0  0
   14.7852   15.7783   29.4623 C   0  0  0  0  0  0
   12.8717   11.7270   40.7003 C   0  0  0  0  0  0
   16.5913   14.3758   30.3336 C   0  0  0  0  0  0
   17.5052   12.5167   35.1577 C   0  0  0  0  0  0
   16.3348   10.7657   36.3538 C   0  0  0  0  0  0
   15.4816   13.0198   36.3979 C   0  0  0  0  0  0
   13.6243   12.9500   41.2758 C   0  0  0  0  0  0
   10.9665   13.1243   37.7424 O   0  0  0  0  0  0
   14.5592   11.8180   43.1909 O   0  0  0  0  0  0
   16.5371   13.4321   35.5903 C   0  0  0  0  0  0
   17.3946   11.1823   35.5522 C   0  0  0  0  0  0
   11.9456   20.4854   32.0536 C   0  0  0  0  0  0
   11.9212   10.9304   38.9460 H   0  0  0  0  0  0
   16.7301   16.3755   33.6299 H   0  0  0  0  0  0
   19.1277   12.1388   33.8864 H   0  0  0  0  0  0
   13.7395   13.1172   38.1799 H   0  0  0  0  0  0
   14.6805   18.2584   34.9626 H   0  0  0  0  0  0
   13.2759   17.1289   28.7623 H   0  0  0  0  0  0
   18.2523   13.2924   31.1443 H   0  0  0  0  0  0
   14.8193   15.2264   28.5331 H   0  0  0  0  0  0
   13.5301   10.8554   40.7515 H   0  0  0  0  0  0
   12.0286   11.4735   41.3447 H   0  0  0  0  0  0
   16.5908   13.8172   29.4082 H   0  0  0  0  0  0
   16.2765    9.7224   36.6298 H   0  0  0  0  0  0
   14.7606   13.7670   36.6984 H   0  0  0  0  0  0
   13.0882   13.8707   41.0474 H   0  0  0  0  0  0
   14.5920   13.0307   40.7943 H   0  0  0  0  0  0
   11.5217   12.5943   37.1664 H   0  0  0  0  0  0
   14.7159   11.8285   44.1500 H   0  0  0  0  0  0
   16.5671   14.4703   35.3053 H   0  0  0  0  0  0
   18.1271   10.4571   35.2264 H   0  0  0  0  0  0
   10.9921   20.2502   31.5913 H   0  0  0  0  0  0
   11.7279   20.7732   33.0830 H   0  0  0  0  0  0
   12.3792   21.3443   31.5457 H   0  0  0  0  0  0
  1  9  1  0  0  0
  1 12  1  0  0  0
  1 16  2  0  0  0
  1 17  2  0  0  0
  2  7  2  0  0  0
  2  3  1  0  0  0
  2  6  1  0  0  0
  3  4  2  0  0  0
  3 19  1  0  0  0
  4  8  1  0  0  0
  5  6  1  0  0  0
  5  8  2  0  0  0
  6 22  2  0  0  0
  7 11  1  0  0  0
  7 20  1  0  0  0
  8 38  1  0  0  0
  9 11  2  0  0  0
  9 25  1  0  0  0
 10 18  1  0  0  0
 10 13  1  0  0  0
 10 23  2  0  0  0
 11 40  1  0  0  0
 12 30  1  0  0  0
 12 41  1  0  0  0
 13 15  1  0  0  0
 13 42  1  0  0  0
 14 15  1  0  0  0
 14 24  2  0  0  0
 14 34  1  0  0  0
 15 28  1  0  0  0
 15 39  1  0  0  0
 18 31  2  0  0  0
 18 32  1  0  0  0
 19 43  1  0  0  0
 20 29  1  0  0  0
 20 27  2  0  0  0
 21 33  1  0  0  0
 21 26  2  0  0  0
 21 35  1  0  0  0
 22 27  1  0  0  0
 22 44  1  0  0  0
 25 29  2  0  0  0
 25 45  1  0  0  0
 27 46  1  0  0  0
 28 33  1  0  0  0
 28 47  1  0  0  0
 28 48  1  0  0  0
 29 49  1  0  0  0
 30 36  1  0  0  0
 30 37  2  0  0  0
 31 37  1  0  0  0
 31 50  1  0  0  0
 32 36  2  0  0  0
 32 51  1  0  0  0
 33 52  1  0  0  0
 33 53  1  0  0  0
 34 54  1  0  0  0
 35 55  1  0  0  0
 36 56  1  0  0  0
 37 57  1  0  0  0
 38 58  1  0  0  0
 38 59  1  0  0  0
 38 60  1  0  0  0
M  END
> <s_m_entry_id>
40994

> <s_m_entry_name>
dock_pv.111

> <s_m_Source_Path>
/home/csk/Desktop/cluster/DUD-E-result/tysy

> <s_m_Source_File>
dock_pv.maegz

> <i_m_Source_File_Index>
111

> <chembl_id>
CHEMBL324739

> <chembl_pref_name>
None

> <i_lp_mmshare_version>
53161

> <r_lp_tautomer_probability>
1

> <s_lp_Force_Field>
OPLS_2005

> <r_lp_Energy>
20.611561

> <b_lp_Chiralities_Consistent>
1

> <s_lp_Variant>
CHEMBL1952_lig334-1

> <s_i_glide_gridfile>
glide-grid_1syn

> <i_i_glide_lignum>
609

> <i_i_glide_rotatable_bonds>
13

> <r_i_docking_score>
-8.42519520151951

> <r_i_glide_ligand_efficiency>
-0.221715663197882

> <r_i_glide_ligand_efficiency_sa>
-0.745402606069579

> <r_i_glide_ligand_efficiency_ln>
-1.81671992958005

> <r_i_glide_gscore>
-8.42519520151951

> <r_i_glide_lipo>
-4.17109119747625

> <r_i_glide_hbond>
0

> <r_i_glide_metal>
0

> <r_i_glide_rewards>
-0.300502495945802

> <r_i_glide_evdw>
-66.5154724121094

> <r_i_glide_ecoul>
-7.73193740844727

> <r_i_glide_erotb>
0.712483167660141

> <r_i_glide_esite>
-0.180520443885044

> <r_i_glide_emodel>
-106.925579995562

> <r_i_glide_energy>
-74.2474098205566

> <r_i_glide_einternal>
4.95566082000732

> <i_i_glide_confnum>
185

> <i_i_glide_posenum>
335

> <r_i_glide_eff_state_penalty>
0

> <s_user_duplicate_titles>
CHEMBL1952_lig334,192111

> <i_f3d_flags>
0

> <s_m_subgroup_title>
dock_pv

> <s_m_subgroupid>
dock_pv

> <b_m_subgroup_collapsed>
1

$$$$
CHEMBL1952_lig89
                    3D
 Schrodinger Suite 2021-1.
 54 56  0  0  1  0            999 V2000
   15.4354   15.4057   29.8891 N   0  0  0  0  0  0
   14.6675   16.4766   30.1956 C   0  0  0  0  0  0
   13.8413   16.9479   29.1915 N   0  0  0  0  0  0
   14.6374   17.1637   31.3587 N   0  0  0  0  0  0
   15.4820   16.7706   32.3484 C   0  0  0  0  0  0
   15.4245   17.6580   33.5764 C   0  0  0  0  0  0
   16.3333   15.6531   32.1752 C   0  0  0  0  0  0
   17.3435   14.9336   32.9304 C   0  0  0  0  0  0
   17.7859   13.9350   32.0744 C   0  0  0  0  0  0
   17.1216   13.9854   30.8744 N   0  0  0  0  0  0
   16.2335   15.0301   30.8939 C   0  0  0  0  0  0
   17.8745   15.2079   34.3255 C   0  0  0  0  0  0
   16.8444   15.0280   35.4643 C   0  0  0  0  0  0
   15.4048   11.1408   36.6240 C   0  0  0  0  0  0
   16.6484   11.2539   35.9911 C   0  0  0  0  0  0
   17.1071   12.4942   35.5637 C   0  0  0  0  0  0
   16.3271   13.6326   35.7734 C   0  0  0  0  0  0
   15.0700   13.5175   36.3704 C   0  0  0  0  0  0
   14.6038   12.2773   36.7875 C   0  0  0  0  0  0
   14.9699    9.8058   37.1561 C   0  0  0  0  0  0
   15.7917    9.0233   37.6295 O   0  0  0  0  0  0
   13.6617    9.5286   37.0568 N   0  0  0  0  0  0
   13.0427    8.2364   37.3772 C   0  0  1  0  0  0
   11.5292    8.4417   37.6791 C   0  0  0  0  0  0
   10.5801    8.7619   36.4960 C   0  0  0  0  0  0
   10.9356   10.0371   35.7261 C   0  0  0  0  0  0
   11.1050   11.1259   36.2696 O   0  0  0  0  0  0
   11.0988    9.8280   34.3898 O   0  0  0  0  0  0
   13.3392    7.1733   36.2897 C   0  0  0  0  0  0
   13.0318    5.9268   36.7526 O   0  0  0  0  0  0
   13.7914    7.4283   35.1914 O   0  0  0  0  0  0
   13.3631   17.8211   29.3555 H   0  0  0  0  0  0
   13.9734   16.5828   28.2604 H   0  0  0  0  0  0
   14.7701   17.2248   34.3319 H   0  0  0  0  0  0
   16.4215   17.7901   33.9905 H   0  0  0  0  0  0
   15.0360   18.6507   33.3420 H   0  0  0  0  0  0
   18.5488   13.1799   32.2223 H   0  0  0  0  0  0
   17.3046   13.3460   30.1137 H   0  0  0  0  0  0
   18.2597   16.2269   34.3600 H   0  0  0  0  0  0
   18.7559   14.5997   34.5313 H   0  0  0  0  0  0
   15.9891   15.6696   35.2719 H   0  0  0  0  0  0
   17.2852   15.4027   36.3902 H   0  0  0  0  0  0
   17.2812   10.3882   35.8506 H   0  0  0  0  0  0
   18.0841   12.5617   35.1091 H   0  0  0  0  0  0
   14.4640   14.3952   36.5430 H   0  0  0  0  0  0
   13.6392   12.2224   37.2729 H   0  0  0  0  0  0
   13.0522   10.2236   36.6477 H   0  0  0  0  0  0
   13.5137    7.8804   38.2957 H   0  0  0  0  0  0
   11.4208    9.2263   38.4303 H   0  0  0  0  0  0
   11.1536    7.5425   38.1704 H   0  0  0  0  0  0
    9.5662    8.8877   36.8767 H   0  0  0  0  0  0
   10.5357    7.9070   35.8274 H   0  0  0  0  0  0
   10.9920    8.9066   34.1195 H   0  0  0  0  0  0
   13.2337    5.2409   36.1055 H   0  0  0  0  0  0
  1  2  2  0  0  0
  1 11  1  0  0  0
  2  3  1  0  0  0
  2  4  1  0  0  0
  3 32  1  0  0  0
  3 33  1  0  0  0
  4  5  2  0  0  0
  5  6  1  0  0  0
  5  7  1  0  0  0
  6 34  1  0  0  0
  6 35  1  0  0  0
  6 36  1  0  0  0
  7  8  1  0  0  0
  7 11  2  0  0  0
  8  9  2  0  0  0
  8 12  1  0  0  0
  9 10  1  0  0  0
  9 37  1  0  0  0
 10 11  1  0  0  0
 10 38  1  0  0  0
 12 13  1  0  0  0
 12 39  1  0  0  0
 12 40  1  0  0  0
 13 17  1  0  0  0
 13 41  1  0  0  0
 13 42  1  0  0  0
 14 15  2  0  0  0
 14 19  1  0  0  0
 14 20  1  0  0  0
 15 16  1  0  0  0
 15 43  1  0  0  0
 16 17  2  0  0  0
 16 44  1  0  0  0
 17 18  1  0  0  0
 18 19  2  0  0  0
 18 45  1  0  0  0
 19 46  1  0  0  0
 20 21  2  0  0  0
 20 22  1  0  0  0
 22 23  1  0  0  0
 22 47  1  0  0  0
 23 24  1  0  0  0
 23 29  1  0  0  0
 23 48  1  0  0  0
 24 25  1  0  0  0
 24 49  1  0  0  0
 24 50  1  0  0  0
 25 26  1  0  0  0
 25 51  1  0  0  0
 25 52  1  0  0  0
 26 27  2  0  0  0
 26 28  1  0  0  0
 28 53  1  0  0  0
 29 30  1  0  0  0
 29 31  2  0  0  0
 30 54  1  0  0  0
M  END
> <s_m_entry_id>
40995

> <s_m_entry_name>
dock_pv.112

> <s_m_Source_Path>
/home/csk/Desktop/cluster/DUD-E-result/tysy

> <s_m_Source_File>
dock_pv.maegz

> <i_m_Source_File_Index>
112

> <chembl_id>
CHEMBL439973

> <chembl_pref_name>
None

> <i_lp_mmshare_version>
53161

> <r_lp_tautomer_probability>
1

> <s_lp_Force_Field>
OPLS_2005

> <r_lp_Energy>
5.989407

> <b_lp_Chiralities_Consistent>
1

> <s_lp_Variant>
CHEMBL1952_lig89-1

> <s_i_glide_gridfile>
glide-grid_1syn

> <i_i_glide_lignum>
158

> <i_i_glide_rotatable_bonds>
12

> <r_i_docking_score>
-8.41692441736605

> <r_i_glide_ligand_efficiency>
-0.271513690882776

> <r_i_glide_ligand_efficiency_sa>
-0.852927854422215

> <r_i_glide_ligand_efficiency_ln>
-1.89827440387108

> <r_i_glide_gscore>
-8.41692441736605

> <r_i_glide_lipo>
-2.89520966985787

> <r_i_glide_hbond>
-0.64

> <r_i_glide_metal>
0

> <r_i_glide_rewards>
-1.37786014784922

> <r_i_glide_evdw>
-47.6929512023926

> <r_i_glide_ecoul>
-14.7677640914917

> <r_i_glide_erotb>
1.09599522113766

> <r_i_glide_esite>
-3.76469532303154e-05

> <r_i_glide_emodel>
-90.6364951295522

> <r_i_glide_energy>
-62.4607152938843

> <r_i_glide_einternal>
5.83079814910889

> <i_i_glide_confnum>
187

> <i_i_glide_posenum>
97

> <r_i_glide_eff_state_penalty>
0

> <s_user_duplicate_titles>
CHEMBL1952_lig89

> <i_f3d_flags>
0

> <s_m_subgroup_title>
dock_pv

> <s_m_subgroupid>
dock_pv

> <b_m_subgroup_collapsed>
1

$$$$
CHEMBL1952_lig418
                    3D
 Schrodinger Suite 2021-1.
 37 39  0  0  1  0            999 V2000
   14.9816   16.9558   32.1256 C   0  0  0  0  0  0
   14.5924   17.9141   33.2443 C   0  0  0  0  0  0
   13.6270   18.7904   32.8938 N   0  0  0  0  0  0
   16.0165   15.9916   32.2240 C   0  0  0  0  0  0
   13.2354   18.0351   30.7602 N   0  0  0  0  0  0
   14.2264   17.0570   30.9452 C   0  0  0  0  0  0
   12.9916   18.8761   31.6936 C   0  0  0  0  0  0
   17.1687   15.9638   33.5944 S   0  0  0  0  0  0
   17.4595   13.4694   34.6854 C   0  0  0  0  0  0
   17.0062   12.3781   35.4440 C   0  0  0  0  0  0
   16.2283   15.1125   31.1381 C   0  0  0  0  0  0
   15.0113   17.9483   34.3910 O   0  0  0  0  0  0
   16.6452   14.5997   34.5802 C   0  0  0  0  0  0
   15.8158   12.4057   36.0983 N   0  0  0  0  0  0
   14.4618   16.1961   29.8819 C   0  0  0  0  0  0
   15.4466   15.2199   29.9836 C   0  0  0  0  0  0
   15.0569   13.5286   36.0163 C   0  0  0  0  0  0
   15.4319   14.6429   35.2669 C   0  0  0  0  0  0
   17.6823   11.1833   35.5907 O   0  0  0  0  0  0
   11.9879   19.9865   31.5091 C   0  0  0  0  0  0
   17.3100   14.0370   31.1652 C   0  0  0  0  0  0
   18.9874   11.0543   35.0321 C   0  0  0  0  0  0
   18.4027   13.4409   34.1613 H   0  0  0  0  0  0
   13.3906   19.4517   33.6264 H   0  0  0  0  0  0
   13.8843   16.2958   28.9755 H   0  0  0  0  0  0
   15.6132   14.5541   29.1482 H   0  0  0  0  0  0
   14.1228   13.5209   36.5588 H   0  0  0  0  0  0
   14.7942   15.5127   35.2202 H   0  0  0  0  0  0
   11.7926   20.1636   30.4506 H   0  0  0  0  0  0
   11.0421   19.7413   31.9916 H   0  0  0  0  0  0
   12.3533   20.9238   31.9303 H   0  0  0  0  0  0
   18.2932   14.4754   31.3391 H   0  0  0  0  0  0
   17.1169   13.3242   31.9645 H   0  0  0  0  0  0
   17.3574   13.4697   30.2378 H   0  0  0  0  0  0
   19.3663   10.0505   35.2241 H   0  0  0  0  0  0
   18.9908   11.2022   33.9516 H   0  0  0  0  0  0
   19.6821   11.7582   35.4935 H   0  0  0  0  0  0
  1  2  1  0  0  0
  1  4  1  0  0  0
  1  6  2  0  0  0
  2 12  2  0  0  0
  2  3  1  0  0  0
  3  7  1  0  0  0
  3 24  1  0  0  0
  4  8  1  0  0  0
  4 11  2  0  0  0
  5  6  1  0  0  0
  5  7  2  0  0  0
  6 15  1  0  0  0
  7 20  1  0  0  0
  8 13  1  0  0  0
  9 13  2  0  0  0
  9 10  1  0  0  0
  9 23  1  0  0  0
 10 19  1  0  0  0
 10 14  2  0  0  0
 11 21  1  0  0  0
 11 16  1  0  0  0
 13 18  1  0  0  0
 14 17  1  0  0  0
 15 16  2  0  0  0
 15 25  1  0  0  0
 16 26  1  0  0  0
 17 18  2  0  0  0
 17 27  1  0  0  0
 18 28  1  0  0  0
 19 22  1  0  0  0
 20 29  1  0  0  0
 20 30  1  0  0  0
 20 31  1  0  0  0
 21 32  1  0  0  0
 21 33  1  0  0  0
 21 34  1  0  0  0
 22 35  1  0  0  0
 22 36  1  0  0  0
 22 37  1  0  0  0
M  END
> <s_m_entry_id>
40996

> <s_m_entry_name>
dock_pv.113

> <s_m_Source_Path>
/home/csk/Desktop/cluster/DUD-E-result/tysy

> <s_m_Source_File>
dock_pv.maegz

> <i_m_Source_File_Index>
113

> <chembl_id>
CHEMBL163411

> <chembl_pref_name>
None

> <i_lp_mmshare_version>
53161

> <r_lp_tautomer_probability>
0.883938

> <s_lp_Force_Field>
OPLS_2005

> <r_lp_Energy>
22.507853

> <b_lp_Chiralities_Consistent>
1

> <s_lp_Variant>
CHEMBL1952_lig418-1

> <s_i_glide_gridfile>
glide-grid_1syn

> <i_i_glide_lignum>
813

> <i_i_glide_rotatable_bonds>
3

> <r_i_docking_score>
-8.41336320949382

> <r_i_glide_ligand_efficiency>
-0.382425600431537

> <r_i_glide_ligand_efficiency_sa>
-1.07157157235458

> <r_i_glide_ligand_efficiency_ln>
-2.05653285327981

> <r_i_glide_gscore>
-8.41336320949382

> <r_i_glide_lipo>
-3.87477930849693

> <r_i_glide_hbond>
-0.127482980548585

> <r_i_glide_metal>
0

> <r_i_glide_rewards>
-1.77858374527793

> <r_i_glide_evdw>
-46.8003540039062

> <r_i_glide_ecoul>
-4.47171020507812

> <r_i_glide_erotb>
0.378257055786657

> <r_i_glide_esite>
0

> <r_i_glide_emodel>
-76.415437969282

> <r_i_glide_energy>
-51.2720642089844

> <r_i_glide_einternal>
4.25692176818848

> <i_i_glide_confnum>
3

> <i_i_glide_posenum>
302

> <r_i_glide_eff_state_penalty>
0

> <s_user_duplicate_titles>
CHEMBL1952_lig418,CHEMBL1952_lig418,273091

> <i_f3d_flags>
0

> <s_m_subgroup_title>
dock_pv

> <s_m_subgroupid>
dock_pv

> <b_m_subgroup_collapsed>
1

$$$$
CHEMBL1952_lig111
                    3D
 Schrodinger Suite 2021-1.
 52 54  0  0  1  0            999 V2000
   13.8674   17.2495   29.8252 N   0  0  0  0  0  0
   13.1947   18.6276   31.6866 N   0  0  0  0  0  0
   14.7796   16.6374   30.6240 C   0  0  0  0  0  0
   14.1155   18.0381   32.4813 C   0  0  0  0  0  0
   14.9576   16.9971   31.9926 C   0  0  0  0  0  0
   13.1233   18.2129   30.4051 C   0  0  0  0  0  0
   14.1910   11.8158   37.6149 C   0  0  0  0  0  0
   15.5241   15.6703   30.0243 N   0  0  0  0  0  0
   13.3603   12.5697   38.3629 N   0  0  0  0  0  0
   11.0933   12.9773   39.3061 C   0  0  0  0  0  0
   12.3478   12.0732   39.3062 C   0  0  2  0  0  0
   15.9512   16.3016   32.7369 C   0  0  0  0  0  0
   15.1565   12.5622   36.7154 C   0  0  0  0  0  0
   13.8465   13.0054   42.8471 C   0  0  0  0  0  0
   14.2824   18.4236   33.7836 O   0  0  0  0  0  0
   14.1870   10.5847   37.6608 O   0  0  0  0  0  0
   10.5956   13.4396   40.3126 O   0  0  0  0  0  0
   12.1920   18.8338   29.5971 N   0  0  0  0  0  0
   17.6888   14.5357   32.7829 N   0  0  0  0  0  0
   13.3916   13.8086   43.6579 O   0  0  0  0  0  0
   12.9671   11.8673   40.7190 C   0  0  0  0  0  0
   16.7025   15.2930   32.1207 C   0  0  0  0  0  0
   16.1401   11.8595   36.0007 C   0  0  0  0  0  0
   15.1035   13.9589   36.5835 C   0  0  0  0  0  0
   16.4552   15.0277   30.7721 C   0  0  0  0  0  0
   13.6346   13.1184   41.3405 C   0  0  0  0  0  0
   10.6317   13.1517   38.0328 O   0  0  0  0  0  0
   17.9978   14.6728   34.2055 C   0  0  0  0  0  0
   16.9922   13.9262   35.0762 C   0  0  0  0  0  0
   14.5918   11.9208   43.1910 O   0  0  0  0  0  0
   16.0167   14.6288   35.7801 C   0  0  0  0  0  0
   17.0528   12.5367   35.1909 C   0  0  0  0  0  0
   13.4410   13.5729   38.2980 H   0  0  0  0  0  0
   12.0000   11.0980   38.9556 H   0  0  0  0  0  0
   16.1139   16.5765   33.7650 H   0  0  0  0  0  0
   13.6967   19.1588   34.0000 H   0  0  0  0  0  0
   11.4914   19.4279   30.0197 H   0  0  0  0  0  0
   12.0927   18.5041   28.6518 H   0  0  0  0  0  0
   18.3437   14.0014   32.2244 H   0  0  0  0  0  0
   13.7131   11.0734   40.6556 H   0  0  0  0  0  0
   12.2048   11.4760   41.3935 H   0  0  0  0  0  0
   16.2164   10.7847   36.0750 H   0  0  0  0  0  0
   14.3769   14.5603   37.1071 H   0  0  0  0  0  0
   17.0104   14.2571   30.2557 H   0  0  0  0  0  0
   13.0330   14.0092   41.1587 H   0  0  0  0  0  0
   14.5919   13.2984   40.8643 H   0  0  0  0  0  0
   11.1658   12.6921   37.3822 H   0  0  0  0  0  0
   18.0585   15.7240   34.4931 H   0  0  0  0  0  0
   18.9936   14.2635   34.3819 H   0  0  0  0  0  0
   14.7404   11.8617   44.1487 H   0  0  0  0  0  0
   15.9550   15.7030   35.7267 H   0  0  0  0  0  0
   17.8088   11.9834   34.6509 H   0  0  0  0  0  0
  1  3  2  0  0  0
  1  6  1  0  0  0
  2  6  2  0  0  0
  2  4  1  0  0  0
  3  5  1  0  0  0
  3  8  1  0  0  0
  4 15  1  0  0  0
  4  5  2  0  0  0
  5 12  1  0  0  0
  6 18  1  0  0  0
  7 13  1  0  0  0
  7  9  1  0  0  0
  7 16  2  0  0  0
  8 25  2  0  0  0
  9 11  1  0  0  0
  9 33  1  0  0  0
 10 11  1  0  0  0
 10 17  2  0  0  0
 10 27  1  0  0  0
 11 21  1  0  0  0
 11 34  1  0  0  0
 12 22  2  0  0  0
 12 35  1  0  0  0
 13 23  1  0  0  0
 13 24  2  0  0  0
 14 26  1  0  0  0
 14 20  2  0  0  0
 14 30  1  0  0  0
 15 36  1  0  0  0
 18 37  1  0  0  0
 18 38  1  0  0  0
 19 22  1  0  0  0
 19 28  1  0  0  0
 19 39  1  0  0  0
 21 26  1  0  0  0
 21 40  1  0  0  0
 21 41  1  0  0  0
 22 25  1  0  0  0
 23 32  2  0  0  0
 23 42  1  0  0  0
 24 31  1  0  0  0
 24 43  1  0  0  0
 25 44  1  0  0  0
 26 45  1  0  0  0
 26 46  1  0  0  0
 27 47  1  0  0  0
 28 29  1  0  0  0
 28 48  1  0  0  0
 28 49  1  0  0  0
 29 31  2  0  0  0
 29 32  1  0  0  0
 30 50  1  0  0  0
 31 51  1  0  0  0
 32 52  1  0  0  0
M  END
> <s_m_entry_id>
40997

> <s_m_entry_name>
dock_pv.114

> <s_m_Source_Path>
/home/csk/Desktop/cluster/DUD-E-result/tysy

> <s_m_Source_File>
dock_pv.maegz

> <i_m_Source_File_Index>
114

> <chembl_id>
CHEMBL157857

> <chembl_pref_name>
None

> <i_lp_mmshare_version>
53161

> <r_lp_tautomer_probability>
1

> <s_lp_Force_Field>
OPLS_2005

> <r_lp_Energy>
9.983388

> <b_lp_Chiralities_Consistent>
1

> <s_lp_Variant>
CHEMBL1952_lig111-2

> <s_i_glide_gridfile>
glide-grid_1syn

> <i_i_glide_lignum>
285

> <i_i_glide_rotatable_bonds>
13

> <r_i_docking_score>
-8.40439173710959

> <r_i_glide_ligand_efficiency>
-0.262637241784675

> <r_i_glide_ligand_efficiency_sa>
-0.83382126682677

> <r_i_glide_ligand_efficiency_ln>
-1.88197240500509

> <r_i_glide_gscore>
-8.40439173710959

> <r_i_glide_lipo>
-3.02601508296013

> <r_i_glide_hbond>
-0.323265898678387

> <r_i_glide_metal>
0

> <r_i_glide_rewards>
-1.39408530700432

> <r_i_glide_evdw>
-55.163459777832

> <r_i_glide_ecoul>
-12.5109748840332

> <r_i_glide_erotb>
1.02940579757628

> <r_i_glide_esite>
-0.0556120245464542

> <r_i_glide_emodel>
-102.107134446608

> <r_i_glide_energy>
-67.6744346618652

> <r_i_glide_einternal>
5.30723237991333

> <i_i_glide_confnum>
74

> <i_i_glide_posenum>
156

> <r_i_glide_eff_state_penalty>
0

> <s_user_duplicate_titles>
CHEMBL1952_lig111

> <i_f3d_flags>
0

> <s_m_subgroup_title>
dock_pv

> <s_m_subgroupid>
dock_pv

> <b_m_subgroup_collapsed>
1

$$$$
CHEMBL1952_lig146
                    3D
 Schrodinger Suite 2021-1.
 37 39  0  0  1  0            999 V2000
   15.8642   16.2981   32.1744 N   0  0  0  0  0  0
   13.5426   19.0280   32.9158 N   0  0  0  0  0  0
   12.8079   18.9846   31.7537 C   0  0  0  0  0  0
   13.0560   18.0832   30.8589 N   0  0  0  0  0  0
   14.5753   18.2263   33.3037 C   0  0  0  0  0  0
   11.7937   19.9463   31.5920 N   0  0  0  0  0  0
   15.1135   18.3843   34.3908 O   0  0  0  0  0  0
   14.8722   17.2572   32.2553 C   0  0  0  0  0  0
   14.0926   17.2209   31.1006 C   0  0  0  0  0  0
   14.6100   16.1936   30.3142 C   0  0  0  0  0  0
   15.6943   15.6216   30.9752 C   0  0  0  0  0  0
   16.5955   14.4786   30.5515 C   0  0  0  0  0  0
   16.9335   16.0637   33.1569 C   0  0  0  0  0  0
   16.6366   14.9774   34.1864 C   0  0  0  0  0  0
   17.4837   13.8699   34.2894 C   0  0  0  0  0  0
   17.1898   12.8514   35.1912 C   0  0  0  0  0  0
   16.0493   12.9158   35.9913 C   0  0  0  0  0  0
   15.2282   14.0499   35.9202 C   0  0  0  0  0  0
   15.5222   15.0743   35.0245 C   0  0  0  0  0  0
   15.7983   11.8210   36.7945 O   0  0  0  0  0  0
   14.6183   11.8056   37.5906 C   0  0  0  0  0  0
   13.3183   19.7444   33.5987 H   0  0  0  0  0  0
   11.0893   19.8287   30.8698 H   0  0  0  0  0  0
   11.4845   20.5044   32.3708 H   0  0  0  0  0  0
   14.2337   15.8953   29.3469 H   0  0  0  0  0  0
   16.2539   14.0196   29.6235 H   0  0  0  0  0  0
   17.6213   14.8019   30.3858 H   0  0  0  0  0  0
   16.6280   13.6872   31.3007 H   0  0  0  0  0  0
   17.8464   15.8279   32.6073 H   0  0  0  0  0  0
   17.1508   17.0004   33.6684 H   0  0  0  0  0  0
   18.3576   13.7852   33.6590 H   0  0  0  0  0  0
   17.8346   11.9861   35.2445 H   0  0  0  0  0  0
   14.3490   14.1498   36.5361 H   0  0  0  0  0  0
   14.8617   15.9251   34.9719 H   0  0  0  0  0  0
   14.5859   10.8802   38.1637 H   0  0  0  0  0  0
   14.5970   12.6318   38.3036 H   0  0  0  0  0  0
   13.7197   11.8447   36.9718 H   0  0  0  0  0  0
  1 11  1  0  0  0
  1  8  1  0  0  0
  1 13  1  0  0  0
  2  3  1  0  0  0
  2  5  1  0  0  0
  2 22  1  0  0  0
  3  6  1  0  0  0
  3  4  2  0  0  0
  4  9  1  0  0  0
  5  7  2  0  0  0
  5  8  1  0  0  0
  6 23  1  0  0  0
  6 24  1  0  0  0
  8  9  2  0  0  0
  9 10  1  0  0  0
 10 11  2  0  0  0
 10 25  1  0  0  0
 11 12  1  0  0  0
 12 26  1  0  0  0
 12 27  1  0  0  0
 12 28  1  0  0  0
 13 14  1  0  0  0
 13 29  1  0  0  0
 13 30  1  0  0  0
 14 15  2  0  0  0
 14 19  1  0  0  0
 15 16  1  0  0  0
 15 31  1  0  0  0
 16 17  2  0  0  0
 16 32  1  0  0  0
 17 18  1  0  0  0
 17 20  1  0  0  0
 18 19  2  0  0  0
 18 33  1  0  0  0
 19 34  1  0  0  0
 20 21  1  0  0  0
 21 35  1  0  0  0
 21 36  1  0  0  0
 21 37  1  0  0  0
M  END
> <s_m_entry_id>
40998

> <s_m_entry_name>
dock_pv.115

> <s_m_Source_Path>
/home/csk/Desktop/cluster/DUD-E-result/tysy

> <s_m_Source_File>
dock_pv.maegz

> <i_m_Source_File_Index>
115

> <chembl_id>
CHEMBL253581

> <chembl_pref_name>
None

> <i_lp_mmshare_version>
53161

> <r_lp_tautomer_probability>
1

> <s_lp_Force_Field>
OPLS_2005

> <r_lp_Energy>
23.79935

> <b_lp_Chiralities_Consistent>
1

> <s_lp_Variant>
CHEMBL1952_lig146-1

> <s_i_glide_gridfile>
glide-grid_1syn

> <i_i_glide_lignum>
323

> <i_i_glide_rotatable_bonds>
3

> <r_i_docking_score>
-8.38880014987299

> <r_i_glide_ligand_efficiency>
-0.399466673803476

> <r_i_glide_ligand_efficiency_sa>
-1.10209826289651

> <r_i_glide_ligand_efficiency_ln>
-2.0741138858893

> <r_i_glide_gscore>
-8.38880014987299

> <r_i_glide_lipo>
-3.26947445554993

> <r_i_glide_hbond>
-0.456

> <r_i_glide_metal>
0

> <r_i_glide_rewards>
-2.35833239601414

> <r_i_glide_evdw>
-39.8352241516113

> <r_i_glide_ecoul>
-4.9801459312439

> <r_i_glide_erotb>
0.448449882557812

> <r_i_glide_esite>
-0.0146600835995847

> <r_i_glide_emodel>
-68.3424756554179

> <r_i_glide_energy>
-44.8153700828552

> <r_i_glide_einternal>
0.263707160949707

> <i_i_glide_confnum>
2

> <i_i_glide_posenum>
372

> <r_i_glide_eff_state_penalty>
0

> <s_user_duplicate_titles>
CHEMBL1952_lig146

> <i_f3d_flags>
0

> <s_m_subgroup_title>
dock_pv

> <s_m_subgroupid>
dock_pv

> <b_m_subgroup_collapsed>
1

$$$$
CHEMBL1952_lig296
                    3D
 Schrodinger Suite 2021-1.
 39 42  0  0  1  0            999 V2000
   14.9263   16.2137   29.3489 N   0  0  0  0  0  0
   14.1091   17.1873   29.8592 C   0  0  0  0  0  0
   14.2822   17.2416   31.2662 C   0  0  0  0  0  0
   15.2680   16.2605   31.6009 C   0  0  0  0  0  0
   15.8930   15.8064   32.7899 C   0  0  0  0  0  0
   16.9587   14.9062   32.6812 C   0  0  0  0  0  0
   17.3249   14.3488   31.4647 C   0  0  0  0  0  0
   16.6625   14.6804   30.2899 C   0  0  0  0  0  0
   15.6697   15.6579   30.3654 C   0  0  0  0  0  0
   12.6126   18.8558   29.8811 C   0  0  0  0  0  0
   13.3047   17.9650   29.1359 N   0  0  0  0  0  0
   13.4938   18.2292   31.9101 C   0  0  0  0  0  0
   12.6442   19.0211   31.2188 N   0  0  0  0  0  0
   11.7920   19.7086   29.1792 N   0  0  0  0  0  0
   13.5529   18.4969   33.2669 N   0  0  0  0  0  0
   15.3920   16.3714   34.3910 S   0  0  0  0  0  0
   15.0644   14.9095   35.3308 C   0  0  0  0  0  0
   13.7480   14.6280   35.6795 C   0  0  0  0  0  0
   13.4499   13.4701   36.3911 C   0  0  0  0  0  0
   14.4597   12.5747   36.7391 C   0  0  0  0  0  0
   16.0948   14.0683   35.7524 C   0  0  0  0  0  0
   15.7917   12.8888   36.4282 C   0  0  0  0  0  0
   14.0584   11.4189   37.3792 O   0  0  0  0  0  0
   14.9929   10.3583   37.5386 C   0  0  0  0  0  0
   14.9918   15.9735   28.3710 H   0  0  0  0  0  0
   17.5169   14.6021   33.5484 H   0  0  0  0  0  0
   18.1339   13.6311   31.4322 H   0  0  0  0  0  0
   16.9438   14.2281   29.3522 H   0  0  0  0  0  0
   10.9359   19.9777   29.6743 H   0  0  0  0  0  0
   11.6371   19.4406   28.2193 H   0  0  0  0  0  0
   14.1892   17.9562   33.8366 H   0  0  0  0  0  0
   13.0176   19.2674   33.6553 H   0  0  0  0  0  0
   12.9516   15.2939   35.3797 H   0  0  0  0  0  0
   12.4235   13.2444   36.6387 H   0  0  0  0  0  0
   17.1276   14.3134   35.5641 H   0  0  0  0  0  0
   16.6034   12.2410   36.7215 H   0  0  0  0  0  0
   14.4822    9.4896   37.9536 H   0  0  0  0  0  0
   15.7919   10.6280   38.2269 H   0  0  0  0  0  0
   15.4294   10.0592   36.5840 H   0  0  0  0  0  0
  1  2  1  0  0  0
  1  9  1  0  0  0
  1 25  1  0  0  0
  2  3  1  0  0  0
  2 11  2  0  0  0
  3  4  1  0  0  0
  3 12  2  0  0  0
  4  5  1  0  0  0
  4  9  2  0  0  0
  5  6  2  0  0  0
  5 16  1  0  0  0
  6  7  1  0  0  0
  6 26  1  0  0  0
  7  8  2  0  0  0
  7 27  1  0  0  0
  8  9  1  0  0  0
  8 28  1  0  0  0
 10 11  1  0  0  0
 10 13  2  0  0  0
 10 14  1  0  0  0
 12 13  1  0  0  0
 12 15  1  0  0  0
 14 29  1  0  0  0
 14 30  1  0  0  0
 15 31  1  0  0  0
 15 32  1  0  0  0
 16 17  1  0  0  0
 17 21  1  0  0  0
 17 18  2  0  0  0
 18 19  1  0  0  0
 18 33  1  0  0  0
 19 20  2  0  0  0
 19 34  1  0  0  0
 20 22  1  0  0  0
 20 23  1  0  0  0
 21 22  2  0  0  0
 21 35  1  0  0  0
 22 36  1  0  0  0
 23 24  1  0  0  0
 24 37  1  0  0  0
 24 38  1  0  0  0
 24 39  1  0  0  0
M  END
> <s_m_entry_id>
40999

> <s_m_entry_name>
dock_pv.116

> <s_m_Source_Path>
/home/csk/Desktop/cluster/DUD-E-result/tysy

> <s_m_Source_File>
dock_pv.maegz

> <i_m_Source_File_Index>
116

> <chembl_id>
CHEMBL4096329

> <chembl_pref_name>
None

> <i_lp_mmshare_version>
53161

> <r_lp_tautomer_probability>
1

> <s_lp_Force_Field>
OPLS_2005

> <r_lp_Energy>
13.916758

> <b_lp_Chiralities_Consistent>
1

> <s_lp_Variant>
CHEMBL1952_lig296-1

> <s_i_glide_gridfile>
glide-grid_1syn

> <i_i_glide_lignum>
566

> <i_i_glide_rotatable_bonds>
3

> <r_i_docking_score>
-8.38269839830864

> <r_i_glide_ligand_efficiency>
-0.349279099929527

> <r_i_glide_ligand_efficiency_sa>
-1.00749526251415

> <r_i_glide_ligand_efficiency_ln>
-2.00636438368017

> <r_i_glide_gscore>
-8.38269839830864

> <r_i_glide_lipo>
-3.62148348435274

> <r_i_glide_hbond>
-0.417771833012781

> <r_i_glide_metal>
0

> <r_i_glide_rewards>
-1.58001947543433

> <r_i_glide_evdw>
-38.6198310852051

> <r_i_glide_ecoul>
-7.24016284942627

> <r_i_glide_erotb>
0.332026273465045

> <r_i_glide_esite>
-0.0784338972996437

> <r_i_glide_emodel>
-69.5569774416478

> <r_i_glide_energy>
-45.8599939346313

> <r_i_glide_einternal>
0.874527037143707

> <i_i_glide_confnum>
7

> <i_i_glide_posenum>
205

> <r_i_glide_eff_state_penalty>
0

> <s_user_duplicate_titles>
CHEMBL1952_lig296

> <i_f3d_flags>
0

> <s_m_subgroup_title>
dock_pv

> <s_m_subgroupid>
dock_pv

> <b_m_subgroup_collapsed>
1

$$$$
CHEMBL1952_lig403
                    3D
 Schrodinger Suite 2021-1.
 33 35  0  0  1  0            999 V2000
   14.9426   17.0443   32.1350 C   0  0  0  0  0  0
   14.5925   18.0208   33.2544 C   0  0  0  0  0  0
   13.6197   18.8949   32.9214 N   0  0  0  0  0  0
   15.9546   16.0546   32.2191 C   0  0  0  0  0  0
   13.2109   18.1622   30.7829 N   0  0  0  0  0  0
   14.1909   17.1717   30.9547 C   0  0  0  0  0  0
   12.9785   18.9945   31.7263 C   0  0  0  0  0  0
   17.0912   15.9574   33.5916 S   0  0  0  0  0  0
   16.1612   15.1936   31.1193 C   0  0  0  0  0  0
   15.0627   18.0875   34.3826 O   0  0  0  0  0  0
   14.4133   16.3226   29.8785 C   0  0  0  0  0  0
   15.3316   12.8533   36.4536 N   0  0  0  0  0  0
   15.3854   15.3320   29.9644 C   0  0  0  0  0  0
   16.3875   14.7597   34.6893 C   0  0  0  0  0  0
   17.1590   13.6664   35.0919 C   0  0  0  0  0  0
   15.0895   14.9018   35.1906 C   0  0  0  0  0  0
   11.9747   20.1073   31.5579 C   0  0  0  0  0  0
   14.6022   13.9306   36.0663 C   0  0  0  0  0  0
   16.5935   12.7368   35.9671 C   0  0  0  0  0  0
   17.2153   14.0901   31.1415 C   0  0  0  0  0  0
   13.3919   19.5545   33.6602 H   0  0  0  0  0  0
   13.8363   16.4436   28.9745 H   0  0  0  0  0  0
   15.5443   14.6765   29.1193 H   0  0  0  0  0  0
   18.1689   13.5378   34.7294 H   0  0  0  0  0  0
   14.4654   15.7350   34.9148 H   0  0  0  0  0  0
   11.7915   20.3129   30.5029 H   0  0  0  0  0  0
   11.0245   19.8434   32.0191 H   0  0  0  0  0  0
   12.3295   21.0325   32.0124 H   0  0  0  0  0  0
   13.6039   14.0072   36.4708 H   0  0  0  0  0  0
   17.1604   11.8797   36.3000 H   0  0  0  0  0  0
   18.2203   14.5134   31.1117 H   0  0  0  0  0  0
   17.1326   13.4983   32.0532 H   0  0  0  0  0  0
   17.1005   13.3919   30.3127 H   0  0  0  0  0  0
  1  2  1  0  0  0
  1  4  1  0  0  0
  1  6  2  0  0  0
  2 10  2  0  0  0
  2  3  1  0  0  0
  3  7  1  0  0  0
  3 21  1  0  0  0
  4  8  1  0  0  0
  4  9  2  0  0  0
  5  6  1  0  0  0
  5  7  2  0  0  0
  6 11  1  0  0  0
  7 17  1  0  0  0
  8 14  1  0  0  0
  9 20  1  0  0  0
  9 13  1  0  0  0
 11 13  2  0  0  0
 11 22  1  0  0  0
 12 18  1  0  0  0
 12 19  2  0  0  0
 13 23  1  0  0  0
 14 15  2  0  0  0
 14 16  1  0  0  0
 15 19  1  0  0  0
 15 24  1  0  0  0
 16 18  2  0  0  0
 16 25  1  0  0  0
 17 26  1  0  0  0
 17 27  1  0  0  0
 17 28  1  0  0  0
 18 29  1  0  0  0
 19 30  1  0  0  0
 20 31  1  0  0  0
 20 32  1  0  0  0
 20 33  1  0  0  0
M  END
> <s_m_entry_id>
41000

> <s_m_entry_name>
dock_pv.117

> <s_m_Source_Path>
/home/csk/Desktop/cluster/DUD-E-result/tysy

> <s_m_Source_File>
dock_pv.maegz

> <i_m_Source_File_Index>
117

> <chembl_id>
CHEMBL351403

> <chembl_pref_name>
None

> <i_lp_mmshare_version>
53161

> <r_lp_tautomer_probability>
0.883938

> <s_lp_Force_Field>
OPLS_2005

> <r_lp_Energy>
21.792242

> <b_lp_Chiralities_Consistent>
1

> <s_lp_Variant>
CHEMBL1952_lig403-1

> <s_i_glide_gridfile>
glide-grid_1syn

> <i_i_glide_lignum>
791

> <i_i_glide_rotatable_bonds>
2

> <r_i_docking_score>
-8.38176180872708

> <r_i_glide_ligand_efficiency>
-0.419088090436354

> <r_i_glide_ligand_efficiency_sa>
-1.1375800944496

> <r_i_glide_ligand_efficiency_ln>
-2.09767853171803

> <r_i_glide_gscore>
-8.38176180872708

> <r_i_glide_lipo>
-4.03909187627507

> <r_i_glide_hbond>
-0.16

> <r_i_glide_metal>
0

> <r_i_glide_rewards>
-1.99910945265121

> <r_i_glide_evdw>
-42.5303726196289

> <r_i_glide_ecoul>
-3.38765835762024

> <r_i_glide_erotb>
0.451106904823686

> <r_i_glide_esite>
0

> <r_i_glide_emodel>
-69.3406189518063

> <r_i_glide_energy>
-45.9180309772491

> <r_i_glide_einternal>
0.778043985366821

> <i_i_glide_confnum>
3

> <i_i_glide_posenum>
353

> <r_i_glide_eff_state_penalty>
0

> <s_user_duplicate_titles>
CHEMBL1952_lig403,CHEMBL1952_lig403,272445

> <i_f3d_flags>
0

> <s_m_subgroup_title>
dock_pv

> <s_m_subgroupid>
dock_pv

> <b_m_subgroup_collapsed>
1

$$$$
CHEMBL1952_lig178
                    3D
 Schrodinger Suite 2021-1.
 35 38  0  0  1  0            999 V2000
   11.7920   20.1614   31.5912 N   0  0  0  0  0  0
   12.7323   19.1502   31.6255 C   0  0  0  0  0  0
   13.3950   19.0283   32.7910 N   0  0  0  0  0  0
   14.3365   18.0687   32.8742 C   0  0  0  0  0  0
   14.9915   18.0105   34.0880 N   0  0  0  0  0  0
   14.6060   17.2024   31.7959 C   0  0  0  0  0  0
   13.8167   17.4479   30.6406 C   0  0  0  0  0  0
   12.8835   18.3968   30.5102 N   0  0  0  0  0  0
   14.1700   16.5406   29.6764 N   0  0  0  0  0  0
   15.1097   15.6699   30.1852 C   0  0  0  0  0  0
   15.6697   14.5382   29.5915 C   0  0  0  0  0  0
   16.5920   13.8280   30.3520 C   0  0  0  0  0  0
   17.0318   14.2615   31.5844 C   0  0  0  0  0  0
   16.4844   15.3850   32.1900 C   0  0  0  0  0  0
   17.1419   15.8283   33.7630 S   0  0  0  0  0  0
   16.6492   14.4825   34.7928 C   0  0  0  0  0  0
   15.5104   14.6073   35.5902 C   0  0  0  0  0  0
   15.1083   13.5385   36.3875 C   0  0  0  0  0  0
   15.8458   12.3552   36.3783 C   0  0  0  0  0  0
   16.9915   12.2355   35.5919 C   0  0  0  0  0  0
   17.4031   13.3082   34.8072 C   0  0  0  0  0  0
   15.4616   16.1005   31.5076 C   0  0  0  0  0  0
   11.0760   20.1078   30.8714 H   0  0  0  0  0  0
   11.6362   20.6406   32.4652 H   0  0  0  0  0  0
   15.7259   17.3281   34.2178 H   0  0  0  0  0  0
   14.7271   18.6829   34.7926 H   0  0  0  0  0  0
   13.7841   16.5114   28.7455 H   0  0  0  0  0  0
   15.3729   14.1932   28.6114 H   0  0  0  0  0  0
   16.9919   12.8993   29.9910 H   0  0  0  0  0  0
   17.8014   13.6883   32.0786 H   0  0  0  0  0  0
   14.9357   15.5219   35.5885 H   0  0  0  0  0  0
   14.2274   13.6262   37.0059 H   0  0  0  0  0  0
   15.5343   11.5268   36.9969 H   0  0  0  0  0  0
   17.5664   11.3210   35.6017 H   0  0  0  0  0  0
   18.3003   13.2198   34.2116 H   0  0  0  0  0  0
  1  2  1  0  0  0
  1 23  1  0  0  0
  1 24  1  0  0  0
  2  3  2  0  0  0
  2  8  1  0  0  0
  3  4  1  0  0  0
  4  5  1  0  0  0
  4  6  2  0  0  0
  5 25  1  0  0  0
  5 26  1  0  0  0
  6  7  1  0  0  0
  6 22  1  0  0  0
  7  8  2  0  0  0
  7  9  1  0  0  0
  9 10  1  0  0  0
  9 27  1  0  0  0
 10 11  2  0  0  0
 10 22  1  0  0  0
 11 12  1  0  0  0
 11 28  1  0  0  0
 12 13  2  0  0  0
 12 29  1  0  0  0
 13 14  1  0  0  0
 13 30  1  0  0  0
 14 15  1  0  0  0
 14 22  2  0  0  0
 15 16  1  0  0  0
 16 17  2  0  0  0
 16 21  1  0  0  0
 17 18  1  0  0  0
 17 31  1  0  0  0
 18 19  2  0  0  0
 18 32  1  0  0  0
 19 20  1  0  0  0
 19 33  1  0  0  0
 20 21  2  0  0  0
 20 34  1  0  0  0
 21 35  1  0  0  0
M  END
> <s_m_entry_id>
41001

> <s_m_entry_name>
dock_pv.118

> <s_m_Source_Path>
/home/csk/Desktop/cluster/DUD-E-result/tysy

> <s_m_Source_File>
dock_pv.maegz

> <i_m_Source_File_Index>
118

> <chembl_id>
CHEMBL1093099

> <chembl_pref_name>
None

> <i_lp_mmshare_version>
53161

> <r_lp_tautomer_probability>
1

> <s_lp_Force_Field>
OPLS_2005

> <r_lp_Energy>
10.308762

> <b_lp_Chiralities_Consistent>
1

> <s_lp_Variant>
CHEMBL1952_lig178-1

> <s_i_glide_gridfile>
glide-grid_1syn

> <i_i_glide_lignum>
355

> <i_i_glide_rotatable_bonds>
2

> <r_i_docking_score>
-8.36170956763723

> <r_i_glide_ligand_efficiency>
-0.380077707619874

> <r_i_glide_ligand_efficiency_sa>
-1.06499268435891

> <r_i_glide_ligand_efficiency_ln>
-2.04390681909769

> <r_i_glide_gscore>
-8.36170956763723

> <r_i_glide_lipo>
-3.86159240610056

> <r_i_glide_hbond>
-0.32

> <r_i_glide_metal>
0

> <r_i_glide_rewards>
-2.05506028493786

> <r_i_glide_evdw>
-42.4558410644531

> <r_i_glide_ecoul>
-2.62392163276672

> <r_i_glide_erotb>
0.391323421538861

> <r_i_glide_esite>
0

> <r_i_glide_emodel>
-67.0611518753446

> <r_i_glide_energy>
-45.0797626972198

> <r_i_glide_einternal>
0.914010107517242

> <i_i_glide_confnum>
12

> <i_i_glide_posenum>
95

> <r_i_glide_eff_state_penalty>
0

> <s_user_duplicate_titles>
CHEMBL1952_lig178

> <i_f3d_flags>
0

> <s_m_subgroup_title>
dock_pv

> <s_m_subgroupid>
dock_pv

> <b_m_subgroup_collapsed>
1

$$$$
CHEMBL1952_lig64
                    3D
 Schrodinger Suite 2021-1.
 31 33  0  0  1  0            999 V2000
   14.5727   17.3137   32.1550 C   0  0  0  0  0  0
   14.1917   18.0312   33.3805 C   0  0  0  0  0  0
   13.9116   17.6672   31.0100 C   0  0  0  0  0  0
   13.3090   19.0280   33.1891 N   0  0  0  0  0  0
   12.9434   18.6299   30.9716 N   0  0  0  0  0  0
   15.6377   16.2578   32.1086 C   0  0  0  0  0  0
   12.6991   19.3234   32.0178 C   0  0  0  0  0  0
   15.7421   15.4282   30.9721 C   0  0  0  0  0  0
   14.5846   17.8129   34.5211 O   0  0  0  0  0  0
   16.5939   16.1177   33.1258 C   0  0  0  0  0  0
   14.2132   16.9844   29.6773 C   0  0  0  0  0  0
   11.7920   20.3896   31.9910 N   0  0  0  0  0  0
   14.6713   15.5237   29.8889 C   0  0  0  0  0  0
   16.7985   14.5141   30.8758 C   0  0  0  0  0  0
   17.6194   15.1815   33.0408 C   0  0  0  0  0  0
   18.7647   15.0781   34.3860 S   0  0  0  0  0  0
   17.7272   14.3785   31.9051 C   0  0  0  0  0  0
   20.0093   13.8279   33.9918 C   0  0  0  0  0  0
   13.1055   19.5950   34.0131 H   0  0  0  0  0  0
   16.5860   16.7553   33.9911 H   0  0  0  0  0  0
   14.9920   17.5581   29.1787 H   0  0  0  0  0  0
   13.3433   17.0179   29.0206 H   0  0  0  0  0  0
   11.1825   20.5193   31.1940 H   0  0  0  0  0  0
   11.5112   20.8579   32.8383 H   0  0  0  0  0  0
   13.8181   14.9245   30.2114 H   0  0  0  0  0  0
   15.0151   15.0894   28.9482 H   0  0  0  0  0  0
   16.8835   13.8781   30.0064 H   0  0  0  0  0  0
   18.5191   13.6510   31.8037 H   0  0  0  0  0  0
   20.7708   13.7936   34.7708 H   0  0  0  0  0  0
   19.5371   12.8476   33.9277 H   0  0  0  0  0  0
   20.4992   14.0504   33.0434 H   0  0  0  0  0  0
  1  2  1  0  0  0
  1  6  1  0  0  0
  1  3  2  0  0  0
  2  4  1  0  0  0
  2  9  2  0  0  0
  3  5  1  0  0  0
  3 11  1  0  0  0
  4  7  1  0  0  0
  4 19  1  0  0  0
  5  7  2  0  0  0
  6  8  2  0  0  0
  6 10  1  0  0  0
  7 12  1  0  0  0
  8 13  1  0  0  0
  8 14  1  0  0  0
 10 15  2  0  0  0
 10 20  1  0  0  0
 11 13  1  0  0  0
 11 21  1  0  0  0
 11 22  1  0  0  0
 12 23  1  0  0  0
 12 24  1  0  0  0
 13 25  1  0  0  0
 13 26  1  0  0  0
 14 17  2  0  0  0
 14 27  1  0  0  0
 15 16  1  0  0  0
 15 17  1  0  0  0
 16 18  1  0  0  0
 17 28  1  0  0  0
 18 29  1  0  0  0
 18 30  1  0  0  0
 18 31  1  0  0  0
M  END
> <s_m_entry_id>
41002

> <s_m_entry_name>
dock_pv.119

> <s_m_Source_Path>
/home/csk/Desktop/cluster/DUD-E-result/tysy

> <s_m_Source_File>
dock_pv.maegz

> <i_m_Source_File_Index>
119

> <chembl_id>
CHEMBL72991

> <chembl_pref_name>
None

> <i_lp_mmshare_version>
53161

> <r_lp_tautomer_probability>
0.878315377147829

> <s_lp_Force_Field>
OPLS_2005

> <r_lp_Energy>
19.26086

> <b_lp_Chiralities_Consistent>
1

> <s_lp_Variant>
CHEMBL1952_lig64-1

> <s_i_glide_gridfile>
glide-grid_1syn

> <i_i_glide_lignum>
96

> <i_i_glide_rotatable_bonds>
1

> <r_i_docking_score>
-8.3570599006931

> <r_i_glide_ligand_efficiency>
-0.464281105594061

> <r_i_glide_ligand_efficiency_sa>
-1.21676071080713

> <r_i_glide_ligand_efficiency_ln>
-2.1481391550129

> <r_i_glide_gscore>
-8.3570599006931

> <r_i_glide_lipo>
-3.03353820908301

> <r_i_glide_hbond>
-0.374472378063086

> <r_i_glide_metal>
0

> <r_i_glide_rewards>
-2.08225187261207

> <r_i_glide_evdw>
-39.724479675293

> <r_i_glide_ecoul>
-5.67141819000244

> <r_i_glide_erotb>
0

> <r_i_glide_esite>
-0.029860728669921

> <r_i_glide_emodel>
-68.5745735323032

> <r_i_glide_energy>
-45.3958978652954

> <r_i_glide_einternal>
0.37867346405983

> <i_i_glide_confnum>
1

> <i_i_glide_posenum>
273

> <r_i_glide_eff_state_penalty>
0

> <s_user_duplicate_titles>
CHEMBL1952_lig64

> <i_f3d_flags>
0

> <s_m_subgroup_title>
dock_pv

> <s_m_subgroupid>
dock_pv

> <b_m_subgroup_collapsed>
1

$$$$
CHEMBL1952_lig238
                    3D
 Schrodinger Suite 2021-1.
 60 62  0  0  1  0            999 V2000
   14.3966   16.9149   29.2526 N   0  0  0  0  0  0
   13.5805   17.6378   29.9194 C   0  0  0  0  0  0
   13.5349   17.6994   31.2964 N   0  0  0  0  0  0
   15.3698   16.1203   29.8761 C   0  0  0  0  0  0
   16.1926   15.4280   29.2857 O   0  0  0  0  0  0
   15.3915   16.1781   31.3985 C   0  0  0  0  0  0
   14.4444   16.9670   32.0620 C   0  0  0  0  0  0
   14.4369   17.0485   33.4458 C   0  0  0  0  0  0
   15.4088   16.3696   34.1767 C   0  0  0  0  0  0
   16.4009   15.6047   33.5365 C   0  0  0  0  0  0
   16.3701   15.4934   32.1388 C   0  0  0  0  0  0
   17.5869   15.0150   34.3212 C   0  0  0  0  0  0
   17.4719   13.5871   34.6836 N   0  0  0  0  0  0
   16.4070   13.1443   35.5230 C   0  0  0  0  0  0
   15.9223   11.8284   35.4973 C   0  0  0  0  0  0
   14.8524   11.4283   36.2935 C   0  0  0  0  0  0
   14.2156   12.3374   37.1453 C   0  0  0  0  0  0
   14.7067   13.6598   37.1912 C   0  0  0  0  0  0
   15.7898   14.0327   36.4030 C   0  0  0  0  0  0
   13.0717   11.8526   38.0070 C   0  0  0  0  0  0
   12.9679   10.6714   38.3403 O   0  0  0  0  0  0
   12.2205   12.8062   38.4013 N   0  0  0  0  0  0
   11.1228   12.7093   39.3593 C   0  0  1  0  0  0
   11.6362   13.2664   40.7285 C   0  0  0  0  0  0
    9.8887   13.4285   38.7559 C   0  0  0  0  0  0
    9.0083   13.8280   39.7125 O   0  0  0  0  0  0
    9.7324   13.6383   37.5713 O   0  0  0  0  0  0
   12.9224   12.5667   41.2494 C   0  0  0  0  0  0
   13.3924   13.0006   42.6360 C   0  0  0  0  0  0
   14.2183   12.0663   43.1905 O   0  0  0  0  0  0
   13.0537   14.0426   43.1923 O   0  0  0  0  0  0
   12.5936   18.5031   29.1709 C   0  0  0  0  0  0
   18.4299   12.6657   34.0324 C   0  0  0  0  0  0
   14.1933   14.6280   38.0210 O   0  0  0  0  0  0
   18.9617   11.5716   34.8805 C   0  0  0  0  0  0
   19.3537   10.6425   35.5708 C   0  0  0  0  0  0
   12.8777   18.3116   31.7514 H   0  0  0  0  0  0
   13.7063   17.6614   33.9539 H   0  0  0  0  0  0
   15.3918   16.4989   35.2462 H   0  0  0  0  0  0
   17.1326   14.9103   31.6361 H   0  0  0  0  0  0
   18.4733   15.1684   33.7027 H   0  0  0  0  0  0
   17.7970   15.5974   35.2149 H   0  0  0  0  0  0
   16.3379   11.1074   34.8098 H   0  0  0  0  0  0
   14.5095   10.4047   36.2236 H   0  0  0  0  0  0
   16.1797   15.0285   36.5176 H   0  0  0  0  0  0
   12.4194   13.7391   38.0626 H   0  0  0  0  0  0
   10.8383   11.6622   39.4785 H   0  0  0  0  0  0
   11.8419   14.3339   40.6311 H   0  0  0  0  0  0
   10.8550   13.1814   41.4807 H   0  0  0  0  0  0
    8.3208   14.3432   39.2753 H   0  0  0  0  0  0
   12.7669   11.4869   41.2556 H   0  0  0  0  0  0
   13.7582   12.7532   40.5756 H   0  0  0  0  0  0
   14.5253   12.2559   44.0890 H   0  0  0  0  0  0
   12.7285   18.4314   28.0915 H   0  0  0  0  0  0
   11.5670   18.2198   29.4011 H   0  0  0  0  0  0
   12.7204   19.5507   29.4386 H   0  0  0  0  0  0
   17.9641   12.2285   33.1511 H   0  0  0  0  0  0
   19.3100   13.2034   33.6753 H   0  0  0  0  0  0
   14.7670   15.4066   38.0304 H   0  0  0  0  0  0
   19.6973    9.8297   36.1658 H   0  0  0  0  0  0
  1  2  2  0  0  0
  1  4  1  0  0  0
  2  3  1  0  0  0
  2 32  1  0  0  0
  3  7  1  0  0  0
  3 37  1  0  0  0
  4  5  2  0  0  0
  4  6  1  0  0  0
  6 11  1  0  0  0
  6  7  2  0  0  0
  7  8  1  0  0  0
  8  9  2  0  0  0
  8 38  1  0  0  0
  9 10  1  0  0  0
  9 39  1  0  0  0
 10 11  2  0  0  0
 10 12  1  0  0  0
 11 40  1  0  0  0
 12 13  1  0  0  0
 12 41  1  0  0  0
 12 42  1  0  0  0
 13 14  1  0  0  0
 13 33  1  0  0  0
 14 19  1  0  0  0
 14 15  2  0  0  0
 15 16  1  0  0  0
 15 43  1  0  0  0
 16 17  2  0  0  0
 16 44  1  0  0  0
 17 18  1  0  0  0
 17 20  1  0  0  0
 18 19  2  0  0  0
 18 34  1  0  0  0
 19 45  1  0  0  0
 20 21  2  0  0  0
 20 22  1  0  0  0
 22 23  1  0  0  0
 22 46  1  0  0  0
 23 24  1  0  0  0
 23 25  1  0  0  0
 23 47  1  0  0  0
 24 28  1  0  0  0
 24 48  1  0  0  0
 24 49  1  0  0  0
 25 26  1  0  0  0
 25 27  2  0  0  0
 26 50  1  0  0  0
 28 29  1  0  0  0
 28 51  1  0  0  0
 28 52  1  0  0  0
 29 30  1  0  0  0
 29 31  2  0  0  0
 30 53  1  0  0  0
 32 54  1  0  0  0
 32 55  1  0  0  0
 32 56  1  0  0  0
 33 35  1  0  0  0
 33 57  1  0  0  0
 33 58  1  0  0  0
 34 59  1  0  0  0
 35 36  3  0  0  0
 36 60  1  0  0  0
M  END
> <s_m_entry_id>
41003

> <s_m_entry_name>
dock_pv.120

> <s_m_Source_Path>
/home/csk/Desktop/cluster/DUD-E-result/tysy

> <s_m_Source_File>
dock_pv.maegz

> <i_m_Source_File_Index>
120

> <chembl_id>
CHEMBL320621

> <chembl_pref_name>
None

> <i_lp_mmshare_version>
53161

> <r_lp_tautomer_probability>
0.116050999999694

> <s_lp_Force_Field>
OPLS_2005

> <r_lp_Energy>
21.607869

> <b_lp_Chiralities_Consistent>
1

> <s_lp_Variant>
CHEMBL1952_lig238-2

> <s_i_glide_gridfile>
glide-grid_1syn

> <i_i_glide_lignum>
473

> <i_i_glide_rotatable_bonds>
15

> <r_i_docking_score>
-8.35612947560432

> <r_i_glide_ligand_efficiency>
-0.232114707655676

> <r_i_glide_ligand_efficiency_sa>
-0.766425877161985

> <r_i_glide_ligand_efficiency_ln>
-1.82308169504781

> <r_i_glide_gscore>
-8.35612947560432

> <r_i_glide_lipo>
-3.44246425816217

> <r_i_glide_hbond>
-0.292260752687084

> <r_i_glide_metal>
0

> <r_i_glide_rewards>
-0.663238756073238

> <r_i_glide_evdw>
-58.5424537658691

> <r_i_glide_ecoul>
-13.4989366531372

> <r_i_glide_erotb>
1.00759028566702

> <r_i_glide_esite>
-0.0137928080848056

> <r_i_glide_emodel>
-104.139515753663

> <r_i_glide_energy>
-72.0413904190063

> <r_i_glide_einternal>
9.28560543060303

> <i_i_glide_confnum>
52

> <i_i_glide_posenum>
152

> <r_i_glide_eff_state_penalty>
0

> <s_user_duplicate_titles>
CHEMBL1952_lig238,CHEMBL1952_lig238,171408

> <i_f3d_flags>
0

> <s_m_subgroup_title>
dock_pv

> <s_m_subgroupid>
dock_pv

> <b_m_subgroup_collapsed>
1

$$$$
CHEMBL1952_lig142
                    3D
 Schrodinger Suite 2021-1.
 51 53  0  0  1  0            999 V2000
   13.9108   16.8241   30.0522 N   0  0  0  0  0  0
   13.6969   17.6733   31.0860 C   0  0  0  0  0  0
   14.3542   17.7161   32.2703 N   0  0  0  0  0  0
   14.8924   15.9027   30.2095 C   0  0  0  0  0  0
   15.6545   15.8292   31.3906 C   0  0  0  0  0  0
   15.3079   16.7874   32.3740 C   0  0  0  0  0  0
   16.1441   16.5864   33.4418 N   0  0  0  0  0  0
   17.0019   15.5425   33.1867 C   0  0  0  0  0  0
   16.7348   15.0328   31.9180 C   0  0  0  0  0  0
   17.4302   13.8872   31.2193 C   0  0  0  0  0  0
   18.2267   15.0295   34.3410 S   0  0  0  0  0  0
   17.3704   13.6727   35.0781 C   0  0  0  0  0  0
   17.9521   12.4071   35.0544 C   0  0  0  0  0  0
   17.2643   11.3230   35.5923 C   0  0  0  0  0  0
   15.9924   11.5014   36.1523 C   0  0  0  0  0  0
   15.4289   12.7850   36.1955 C   0  0  0  0  0  0
   16.1200   13.8695   35.6639 C   0  0  0  0  0  0
   15.2364   10.3091   36.6736 C   0  0  0  0  0  0
   13.9430   10.2586   36.3128 N   0  0  0  0  0  0
   15.7918    9.4284   37.3321 O   0  0  0  0  0  0
   13.0289    9.1329   36.5443 C   0  0  1  0  0  0
   11.5824    9.5472   36.1568 C   0  0  0  0  0  0
   11.4015   10.0565   34.7058 C   0  0  0  0  0  0
    9.9367   10.3324   34.3743 C   0  0  0  0  0  0
    9.4178    9.4287   33.4935 O   0  0  0  0  0  0
    9.3004   11.2657   34.8600 O   0  0  0  0  0  0
   15.1180   15.0370   29.1471 N   0  0  0  0  0  0
   12.6918   18.6105   30.9254 N   0  0  0  0  0  0
   13.4752    7.8465   35.8079 C   0  0  0  0  0  0
   12.9350    6.7536   36.4201 O   0  0  0  0  0  0
   14.1911    7.8280   34.8263 O   0  0  0  0  0  0
   16.1593   17.1070   34.3053 H   0  0  0  0  0  0
   17.9567   14.2399   30.3331 H   0  0  0  0  0  0
   18.1813   13.4013   31.8477 H   0  0  0  0  0  0
   16.7338   13.1091   30.9015 H   0  0  0  0  0  0
   18.9219   12.2602   34.5965 H   0  0  0  0  0  0
   17.7188   10.3422   35.5500 H   0  0  0  0  0  0
   14.4553   12.9552   36.6355 H   0  0  0  0  0  0
   15.6782   14.8552   35.6996 H   0  0  0  0  0  0
   13.5784   11.0117   35.7517 H   0  0  0  0  0  0
   13.0539    8.9229   37.6152 H   0  0  0  0  0  0
   11.2484   10.3292   36.8416 H   0  0  0  0  0  0
   10.9033    8.7110   36.3370 H   0  0  0  0  0  0
   11.8128    9.3442   33.9912 H   0  0  0  0  0  0
   11.9455   10.9881   34.5602 H   0  0  0  0  0  0
   10.0544    8.7624   33.2111 H   0  0  0  0  0  0
   15.8569   14.3521   29.2141 H   0  0  0  0  0  0
   14.5904   15.1648   28.2955 H   0  0  0  0  0  0
   12.1534   18.6217   30.0725 H   0  0  0  0  0  0
   12.5424   19.2816   31.6629 H   0  0  0  0  0  0
   13.1884    5.9351   35.9872 H   0  0  0  0  0  0
  1  2  1  0  0  0
  1  4  2  0  0  0
  2 28  1  0  0  0
  2  3  2  0  0  0
  3  6  1  0  0  0
  4  5  1  0  0  0
  4 27  1  0  0  0
  5  9  1  0  0  0
  5  6  2  0  0  0
  6  7  1  0  0  0
  7  8  1  0  0  0
  7 32  1  0  0  0
  8  9  2  0  0  0
  8 11  1  0  0  0
  9 10  1  0  0  0
 10 33  1  0  0  0
 10 34  1  0  0  0
 10 35  1  0  0  0
 11 12  1  0  0  0
 12 17  1  0  0  0
 12 13  2  0  0  0
 13 14  1  0  0  0
 13 36  1  0  0  0
 14 15  2  0  0  0
 14 37  1  0  0  0
 15 16  1  0  0  0
 15 18  1  0  0  0
 16 17  2  0  0  0
 16 38  1  0  0  0
 17 39  1  0  0  0
 18 19  1  0  0  0
 18 20  2  0  0  0
 19 21  1  0  0  0
 19 40  1  0  0  0
 21 22  1  0  0  0
 21 29  1  0  0  0
 21 41  1  0  0  0
 22 23  1  0  0  0
 22 42  1  0  0  0
 22 43  1  0  0  0
 23 24  1  0  0  0
 23 44  1  0  0  0
 23 45  1  0  0  0
 24 25  1  0  0  0
 24 26  2  0  0  0
 25 46  1  0  0  0
 27 47  1  0  0  0
 27 48  1  0  0  0
 28 49  1  0  0  0
 28 50  1  0  0  0
 29 30  1  0  0  0
 29 31  2  0  0  0
 30 51  1  0  0  0
M  END
> <s_m_entry_id>
41004

> <s_m_entry_name>
dock_pv.121

> <s_m_Source_Path>
/home/csk/Desktop/cluster/DUD-E-result/tysy

> <s_m_Source_File>
dock_pv.maegz

> <i_m_Source_File_Index>
121

> <chembl_id>
CHEMBL389643

> <chembl_pref_name>
None

> <i_lp_mmshare_version>
53161

> <r_lp_tautomer_probability>
1

> <s_lp_Force_Field>
OPLS_2005

> <r_lp_Energy>
6.598861

> <b_lp_Chiralities_Consistent>
1

> <s_lp_Variant>
CHEMBL1952_lig142-1

> <s_i_glide_gridfile>
glide-grid_1syn

> <i_i_glide_lignum>
319

> <i_i_glide_rotatable_bonds>
11

> <r_i_docking_score>
-8.35537058368185

> <r_i_glide_ligand_efficiency>
-0.269528083344576

> <r_i_glide_ligand_efficiency_sa>
-0.846690305325611

> <r_i_glide_ligand_efficiency_ln>
-1.88439212797684

> <r_i_glide_gscore>
-8.35537058368185

> <r_i_glide_lipo>
-2.87484892200998

> <r_i_glide_hbond>
-0.581304047423443

> <r_i_glide_metal>
0

> <r_i_glide_rewards>
-1.4219457671125

> <r_i_glide_evdw>
-56.499828338623

> <r_i_glide_ecoul>
-10.4230184555054

> <r_i_glide_erotb>
0.911172338121031

> <r_i_glide_esite>
0

> <r_i_glide_emodel>
-98.7644430465181

> <r_i_glide_energy>
-66.9228467941284

> <r_i_glide_einternal>
4.37705707550049

> <i_i_glide_confnum>
206

> <i_i_glide_posenum>
255

> <r_i_glide_eff_state_penalty>
0

> <s_user_duplicate_titles>
CHEMBL1952_lig142,374726

> <i_f3d_flags>
0

> <s_m_subgroup_title>
dock_pv

> <s_m_subgroupid>
dock_pv

> <b_m_subgroup_collapsed>
1

$$$$
CHEMBL1952_lig468
                    3D
 Schrodinger Suite 2021-1.
 38 41  0  0  1  0            999 V2000
   18.5928   15.8280   34.7902 O   0  0  0  0  0  0
   18.7595   14.5343   34.1281 S   0  0  0  0  0  0
   20.0991   13.9714   33.9679 O   0  0  0  0  0  0
   15.4045   16.0825   30.3457 C   0  0  0  0  0  0
   16.4735   15.2776   30.8121 C   0  0  0  0  0  0
   13.0310   18.7398   31.8118 C   0  0  0  0  0  0
   14.3624   17.8116   33.5968 C   0  0  0  0  0  0
   13.7000   17.8269   30.8313 C   0  0  0  0  0  0
   14.5700   17.8360   34.8004 O   0  0  0  0  0  0
   15.0077   16.1219   28.9939 C   0  0  0  0  0  0
   12.1924   19.5972   31.5383 O   0  0  0  0  0  0
   14.7324   16.9320   31.2614 C   0  0  0  0  0  0
   13.3970   18.6270   33.1126 O   0  0  0  0  0  0
   16.8834   15.3424   32.1459 C   0  0  0  0  0  0
   13.3780   17.8598   29.4746 C   0  0  0  0  0  0
   16.1680   16.1427   33.0428 C   0  0  0  0  0  0
   14.0378   17.0292   28.5754 C   0  0  0  0  0  0
   15.0986   16.9439   32.6317 C   0  0  0  0  0  0
   18.0349   14.6161   32.5047 N   0  0  0  0  0  0
   17.7658   13.3299   34.9924 C   0  0  0  0  0  0
   16.6360   13.7382   35.7032 C   0  0  0  0  0  0
   15.8521   12.7954   36.3577 C   0  0  0  0  0  0
   16.1919   11.4366   36.3159 C   0  0  0  0  0  0
   17.3268   11.0380   35.5915 C   0  0  0  0  0  0
   18.1098   11.9785   34.9277 C   0  0  0  0  0  0
   15.3742   10.4397   37.0464 N   0  3  0  0  0  0
   14.3211   10.8060   37.5596 O   0  0  0  0  0  0
   15.7868    9.2857   37.1224 O   0  5  0  0  0  0
   17.0062   14.6548   30.1037 H   0  0  0  0  0  0
   15.4999   15.4821   28.2758 H   0  0  0  0  0  0
   12.6193   18.5370   29.1053 H   0  0  0  0  0  0
   16.4459   16.1869   34.0781 H   0  0  0  0  0  0
   13.7926   17.0802   27.5253 H   0  0  0  0  0  0
   18.4621   14.0197   31.8110 H   0  0  0  0  0  0
   16.3692   14.7845   35.7707 H   0  0  0  0  0  0
   14.9882   13.1346   36.9127 H   0  0  0  0  0  0
   17.6160    9.9991   35.5389 H   0  0  0  0  0  0
   18.9818   11.6624   34.3653 H   0  0  0  0  0  0
  1  2  2  0  0  0
  2  3  2  0  0  0
  2 19  1  0  0  0
  2 20  1  0  0  0
  4 10  2  0  0  0
  4 12  1  0  0  0
  4  5  1  0  0  0
  5 14  2  0  0  0
  5 29  1  0  0  0
  6  8  1  0  0  0
  6 11  2  0  0  0
  6 13  1  0  0  0
  7 18  1  0  0  0
  7 13  1  0  0  0
  7  9  2  0  0  0
  8 15  1  0  0  0
  8 12  2  0  0  0
 10 17  1  0  0  0
 10 30  1  0  0  0
 12 18  1  0  0  0
 14 16  1  0  0  0
 14 19  1  0  0  0
 15 17  2  0  0  0
 15 31  1  0  0  0
 16 18  2  0  0  0
 16 32  1  0  0  0
 17 33  1  0  0  0
 19 34  1  0  0  0
 20 21  2  0  0  0
 20 25  1  0  0  0
 21 22  1  0  0  0
 21 35  1  0  0  0
 22 23  2  0  0  0
 22 36  1  0  0  0
 23 24  1  0  0  0
 23 26  1  0  0  0
 24 25  2  0  0  0
 24 37  1  0  0  0
 25 38  1  0  0  0
 26 27  2  0  0  0
 26 28  1  0  0  0
M  CHG  2  26   1  28  -1
M  END
> <s_m_entry_id>
41005

> <s_m_entry_name>
dock_pv.122

> <s_m_Source_Path>
/home/csk/Desktop/cluster/DUD-E-result/tysy

> <s_m_Source_File>
dock_pv.maegz

> <i_m_Source_File_Index>
122

> <chembl_id>
CHEMBL2323390

> <chembl_pref_name>
None

> <i_lp_mmshare_version>
53161

> <r_lp_tautomer_probability>
1

> <s_lp_Force_Field>
OPLS_2005

> <r_lp_Energy>
38.238416

> <b_lp_Chiralities_Consistent>
1

> <s_lp_Variant>
CHEMBL1952_lig468-1

> <s_i_glide_gridfile>
glide-grid_1syn

> <i_i_glide_lignum>
898

> <i_i_glide_rotatable_bonds>
4

> <r_i_docking_score>
-8.35383005104928

> <r_i_glide_ligand_efficiency>
-0.29835107325176

> <r_i_glide_ligand_efficiency_sa>
-0.90596957777727

> <r_i_glide_ligand_efficiency_ln>
-1.92830925489052

> <r_i_glide_gscore>
-8.35383005104928

> <r_i_glide_lipo>
-3.79069870456541

> <r_i_glide_hbond>
0

> <r_i_glide_metal>
0

> <r_i_glide_rewards>
-1.82043314829473

> <r_i_glide_evdw>
-52.1991729736328

> <r_i_glide_ecoul>
-2.43676972389221

> <r_i_glide_erotb>
0.370248704635098

> <r_i_glide_esite>
-0.137472795558764

> <r_i_glide_emodel>
-80.8191435190733

> <r_i_glide_energy>
-54.635942697525

> <r_i_glide_einternal>
0.76862645149231

> <i_i_glide_confnum>
5

> <i_i_glide_posenum>
48

> <r_i_glide_eff_state_penalty>
0

> <s_user_duplicate_titles>
CHEMBL1952_lig468

> <i_f3d_flags>
0

> <s_m_subgroup_title>
dock_pv

> <s_m_subgroupid>
dock_pv

> <b_m_subgroup_collapsed>
1

$$$$
CHEMBL1952_lig121
                    3D
 Schrodinger Suite 2021-1.
 34 36  0  0  1  0            999 V2000
   14.8069   16.9339   31.7594 C   0  0  0  0  0  0
   14.4197   16.4973   30.4639 C   0  0  0  0  0  0
   13.4424   17.0114   29.7183 N   0  0  0  0  0  0
   15.9277   16.1086   32.1498 C   0  0  0  0  0  0
   14.0532   18.0121   32.2847 C   0  0  0  0  0  0
   13.0403   18.5451   31.5549 N   0  0  0  0  0  0
   12.8033   18.0357   30.3253 C   0  0  0  0  0  0
   15.2467   15.4622   30.1074 N   0  0  0  0  0  0
   16.1581   15.2219   31.1061 C   0  0  0  0  0  0
   14.1523   12.2988   37.3115 C   0  0  0  0  0  0
   16.9209   16.2337   33.5893 S   0  0  0  0  0  0
   14.8740   13.3011   36.4130 C   0  0  0  0  0  0
   14.3878   18.4867   33.5234 O   0  0  0  0  0  0
   11.7988   18.6280   29.5879 N   0  0  0  0  0  0
   13.0441   11.8729   36.7044 F   0  0  0  0  0  0
   14.9033   11.2311   37.5911 F   0  0  0  0  0  0
   13.8085   12.8844   38.4600 F   0  0  0  0  0  0
   16.1176   15.1044   34.6890 C   0  0  0  0  0  0
   16.1932   13.0829   35.9973 C   0  0  0  0  0  0
   14.1965   14.4487   35.9892 C   0  0  0  0  0  0
   16.8195   13.9919   35.1498 C   0  0  0  0  0  0
   14.8155   15.3481   35.1250 C   0  0  0  0  0  0
   17.1998   14.1414   30.9410 C   0  0  0  0  0  0
   15.2292   14.9373   29.2462 H   0  0  0  0  0  0
   13.8125   19.2178   33.7779 H   0  0  0  0  0  0
   11.6076   18.2741   28.6675 H   0  0  0  0  0  0
   11.1465   19.2664   30.0324 H   0  0  0  0  0  0
   16.7430   12.2126   36.3245 H   0  0  0  0  0  0
   13.1807   14.6285   36.3097 H   0  0  0  0  0  0
   17.8360   13.8176   34.8282 H   0  0  0  0  0  0
   14.2801   16.2222   34.7885 H   0  0  0  0  0  0
   17.5608   13.7756   31.9025 H   0  0  0  0  0  0
   16.8195   13.2717   30.4043 H   0  0  0  0  0  0
   18.0721   14.5055   30.3991 H   0  0  0  0  0  0
  1  2  1  0  0  0
  1  4  1  0  0  0
  1  5  2  0  0  0
  2  3  2  0  0  0
  2  8  1  0  0  0
  3  7  1  0  0  0
  4  9  2  0  0  0
  4 11  1  0  0  0
  5  6  1  0  0  0
  5 13  1  0  0  0
  6  7  2  0  0  0
  7 14  1  0  0  0
  8  9  1  0  0  0
  8 24  1  0  0  0
  9 23  1  0  0  0
 10 12  1  0  0  0
 10 15  1  0  0  0
 10 16  1  0  0  0
 10 17  1  0  0  0
 11 18  1  0  0  0
 12 20  2  0  0  0
 12 19  1  0  0  0
 13 25  1  0  0  0
 14 26  1  0  0  0
 14 27  1  0  0  0
 18 21  1  0  0  0
 18 22  2  0  0  0
 19 21  2  0  0  0
 19 28  1  0  0  0
 20 22  1  0  0  0
 20 29  1  0  0  0
 21 30  1  0  0  0
 22 31  1  0  0  0
 23 32  1  0  0  0
 23 33  1  0  0  0
 23 34  1  0  0  0
M  END
> <s_m_entry_id>
41006

> <s_m_entry_name>
dock_pv.123

> <s_m_Source_Path>
/home/csk/Desktop/cluster/DUD-E-result/tysy

> <s_m_Source_File>
dock_pv.maegz

> <i_m_Source_File_Index>
123

> <chembl_id>
CHEMBL364453

> <chembl_pref_name>
None

> <i_lp_mmshare_version>
53161

> <r_lp_tautomer_probability>
1

> <s_lp_Force_Field>
OPLS_2005

> <r_lp_Energy>
3.212593

> <b_lp_Chiralities_Consistent>
1

> <s_lp_Variant>
CHEMBL1952_lig121-1

> <s_i_glide_gridfile>
glide-grid_1syn

> <i_i_glide_lignum>
298

> <i_i_glide_rotatable_bonds>
4

> <r_i_docking_score>
-8.35122040269841

> <r_i_glide_ligand_efficiency>
-0.363096539247757

> <r_i_glide_ligand_efficiency_sa>
-1.03259825738584

> <r_i_glide_ligand_efficiency_ln>
-2.01940081805243

> <r_i_glide_gscore>
-8.35122040269841

> <r_i_glide_lipo>
-3.36145202040195

> <r_i_glide_hbond>
-0.348555243361179

> <r_i_glide_metal>
0

> <r_i_glide_rewards>
-2.01504652286235

> <r_i_glide_evdw>
-39.8273315429688

> <r_i_glide_ecoul>
-5.98180627822876

> <r_i_glide_erotb>
0.326986560775467

> <r_i_glide_esite>
-0.0645156579656471

> <r_i_glide_emodel>
-68.9431831393941

> <r_i_glide_energy>
-45.8091378211975

> <r_i_glide_einternal>
1.3230048418045

> <i_i_glide_confnum>
7

> <i_i_glide_posenum>
156

> <r_i_glide_eff_state_penalty>
0

> <s_user_duplicate_titles>
CHEMBL1952_lig121,325152

> <i_f3d_flags>
0

> <s_m_subgroup_title>
dock_pv

> <s_m_subgroupid>
dock_pv

> <b_m_subgroup_collapsed>
1

$$$$
CHEMBL1952_lig51
                    3D
 Schrodinger Suite 2021-1.
 27 29  0  0  1  0            999 V2000
   14.7058   17.1610   32.0292 C   0  0  0  0  0  0
   14.6056   18.1865   33.0714 C   0  0  0  0  0  0
   13.8176   17.2535   30.9938 C   0  0  0  0  0  0
   13.5651   19.0276   32.9310 N   0  0  0  0  0  0
   12.8607   18.2276   30.9128 N   0  0  0  0  0  0
   15.7574   16.0939   32.0300 C   0  0  0  0  0  0
   12.7450   19.0824   31.8590 C   0  0  0  0  0  0
   16.0550   15.4269   30.8230 C   0  0  0  0  0  0
   15.3920   18.3691   33.9913 O   0  0  0  0  0  0
   16.4122   15.6820   33.2035 C   0  0  0  0  0  0
   13.8948   16.2880   29.8134 C   0  0  0  0  0  0
   11.7921   20.1058   31.8172 N   0  0  0  0  0  0
   15.3594   15.8699   29.5404 C   0  0  0  0  0  0
   16.9911   14.3881   30.8216 C   0  0  0  0  0  0
   17.3512   14.6544   33.1796 C   0  0  0  0  0  0
   17.6457   14.0074   31.9883 C   0  0  0  0  0  0
   18.1919   14.1022   34.7906 Br  0  0  0  0  0  0
   13.4562   19.7040   33.6784 H   0  0  0  0  0  0
   16.1873   16.1300   34.1577 H   0  0  0  0  0  0
   13.4599   16.7353   28.9202 H   0  0  0  0  0  0
   13.2866   15.4135   30.0519 H   0  0  0  0  0  0
   11.0783   20.1196   31.0979 H   0  0  0  0  0  0
   11.6341   20.7187   32.6036 H   0  0  0  0  0  0
   15.3987   15.0933   28.7740 H   0  0  0  0  0  0
   15.9077   16.7269   29.1468 H   0  0  0  0  0  0
   17.2147   13.8647   29.9076 H   0  0  0  0  0  0
   18.3709   13.2065   31.9694 H   0  0  0  0  0  0
  1  2  1  0  0  0
  1  6  1  0  0  0
  1  3  2  0  0  0
  2  4  1  0  0  0
  2  9  2  0  0  0
  3  5  1  0  0  0
  3 11  1  0  0  0
  4  7  1  0  0  0
  4 18  1  0  0  0
  5  7  2  0  0  0
  6  8  2  0  0  0
  6 10  1  0  0  0
  7 12  1  0  0  0
  8 13  1  0  0  0
  8 14  1  0  0  0
 10 15  2  0  0  0
 10 19  1  0  0  0
 11 13  1  0  0  0
 11 20  1  0  0  0
 11 21  1  0  0  0
 12 22  1  0  0  0
 12 23  1  0  0  0
 13 24  1  0  0  0
 13 25  1  0  0  0
 14 16  2  0  0  0
 14 26  1  0  0  0
 15 16  1  0  0  0
 15 17  1  0  0  0
 16 27  1  0  0  0
M  END
> <s_m_entry_id>
41007

> <s_m_entry_name>
dock_pv.124

> <s_m_Source_Path>
/home/csk/Desktop/cluster/DUD-E-result/tysy

> <s_m_Source_File>
dock_pv.maegz

> <i_m_Source_File_Index>
124

> <chembl_id>
CHEMBL306308

> <chembl_pref_name>
None

> <i_lp_mmshare_version>
53161

> <r_lp_tautomer_probability>
0.878315377147829

> <s_lp_Force_Field>
OPLS_2005

> <r_lp_Energy>
18.750832

> <b_lp_Chiralities_Consistent>
1

> <s_lp_Variant>
CHEMBL1952_lig51-1

> <s_i_glide_gridfile>
glide-grid_1syn

> <i_i_glide_lignum>
69

> <i_i_glide_rotatable_bonds>
0

> <r_i_docking_score>
-8.3509034722934

> <r_i_glide_ligand_efficiency>
-0.491229616017259

> <r_i_glide_ligand_efficiency_sa>
-1.26308966725842

> <r_i_glide_ligand_efficiency_ln>
-2.17856475044425

> <r_i_glide_gscore>
-8.3509034722934

> <r_i_glide_lipo>
-3.04536710130364

> <r_i_glide_hbond>
-0.456

> <r_i_glide_metal>
0

> <r_i_glide_rewards>
-2.02008147691136

> <r_i_glide_evdw>
-38.0339813232422

> <r_i_glide_ecoul>
-6.08624267578125

> <r_i_glide_erotb>
0

> <r_i_glide_esite>
-0.0148194265491093

> <r_i_glide_emodel>
-68.1184869512742

> <r_i_glide_energy>
-44.1202239990234

> <r_i_glide_einternal>
0

> <i_i_glide_confnum>
1

> <i_i_glide_posenum>
35

> <r_i_glide_eff_state_penalty>
0

> <s_user_duplicate_titles>
CHEMBL1952_lig51,CHEMBL1952_lig51,CHEMBL1952_lig51

> <i_f3d_flags>
0

> <s_m_subgroup_title>
dock_pv

> <s_m_subgroupid>
dock_pv

> <b_m_subgroup_collapsed>
1

$$$$
CHEMBL1952_lig122
                    3D
 Schrodinger Suite 2021-1.
 32 34  0  0  1  0            999 V2000
   14.8374   16.9439   31.7769 C   0  0  0  0  0  0
   14.4393   16.5142   30.4821 C   0  0  0  0  0  0
   13.4514   17.0228   29.7492 N   0  0  0  0  0  0
   15.9655   16.1193   32.1518 C   0  0  0  0  0  0
   14.0827   18.0161   32.3140 C   0  0  0  0  0  0
   13.0593   18.5459   31.5956 N   0  0  0  0  0  0
   12.8118   18.0382   30.3675 C   0  0  0  0  0  0
   15.2700   15.4918   30.1058 N   0  0  0  0  0  0
   16.1943   15.2508   31.0909 C   0  0  0  0  0  0
   16.9668   16.2271   33.5908 S   0  0  0  0  0  0
   13.7968   11.6167   38.0536 N   0  0  0  0  0  0
   14.3100   12.3603   37.3295 C   0  0  0  0  0  0
   14.4262   18.4899   33.5506 O   0  0  0  0  0  0
   11.7921   18.6184   29.6432 N   0  0  0  0  0  0
   16.1709   15.0794   34.6721 C   0  0  0  0  0  0
   14.9551   13.2969   36.4216 C   0  0  0  0  0  0
   17.2490   14.1906   30.8887 C   0  0  0  0  0  0
   16.8774   13.9650   35.1225 C   0  0  0  0  0  0
   14.8710   15.3213   35.1142 C   0  0  0  0  0  0
   16.2648   13.0651   35.9911 C   0  0  0  0  0  0
   14.2608   14.4296   35.9910 C   0  0  0  0  0  0
   15.2493   14.9774   29.2386 H   0  0  0  0  0  0
   13.8469   19.2161   33.8107 H   0  0  0  0  0  0
   11.1429   19.2563   30.0930 H   0  0  0  0  0  0
   11.5900   18.2583   28.7274 H   0  0  0  0  0  0
   18.1809   14.6206   30.5207 H   0  0  0  0  0  0
   17.4851   13.6719   31.8185 H   0  0  0  0  0  0
   16.9410   13.4269   30.1732 H   0  0  0  0  0  0
   17.8920   13.7924   34.7934 H   0  0  0  0  0  0
   14.3343   16.1968   34.7818 H   0  0  0  0  0  0
   16.8188   12.2010   36.3309 H   0  0  0  0  0  0
   13.2499   14.6270   36.3206 H   0  0  0  0  0  0
  1  2  1  0  0  0
  1  4  1  0  0  0
  1  5  2  0  0  0
  2  3  2  0  0  0
  2  8  1  0  0  0
  3  7  1  0  0  0
  4  9  2  0  0  0
  4 10  1  0  0  0
  5  6  1  0  0  0
  5 13  1  0  0  0
  6  7  2  0  0  0
  7 14  1  0  0  0
  8  9  1  0  0  0
  8 22  1  0  0  0
  9 17  1  0  0  0
 10 15  1  0  0  0
 11 12  3  0  0  0
 12 16  1  0  0  0
 13 23  1  0  0  0
 14 24  1  0  0  0
 14 25  1  0  0  0
 15 18  2  0  0  0
 15 19  1  0  0  0
 16 21  1  0  0  0
 16 20  2  0  0  0
 17 26  1  0  0  0
 17 27  1  0  0  0
 17 28  1  0  0  0
 18 20  1  0  0  0
 18 29  1  0  0  0
 19 21  2  0  0  0
 19 30  1  0  0  0
 20 31  1  0  0  0
 21 32  1  0  0  0
M  END
> <s_m_entry_id>
41008

> <s_m_entry_name>
dock_pv.125

> <s_m_Source_Path>
/home/csk/Desktop/cluster/DUD-E-result/tysy

> <s_m_Source_File>
dock_pv.maegz

> <i_m_Source_File_Index>
125

> <chembl_id>
CHEMBL195867

> <chembl_pref_name>
None

> <i_lp_mmshare_version>
53161

> <r_lp_tautomer_probability>
1

> <s_lp_Force_Field>
OPLS_2005

> <r_lp_Energy>
2.4645

> <b_lp_Chiralities_Consistent>
1

> <s_lp_Variant>
CHEMBL1952_lig122-1

> <s_i_glide_gridfile>
glide-grid_1syn

> <i_i_glide_lignum>
299

> <i_i_glide_rotatable_bonds>
3

> <r_i_docking_score>
-8.34942185034969

> <r_i_glide_ligand_efficiency>
-0.397591516683319

> <r_i_glide_ligand_efficiency_sa>
-1.09692484658844

> <r_i_glide_ligand_efficiency_ln>
-2.06437768090351

> <r_i_glide_gscore>
-8.34942185034969

> <r_i_glide_lipo>
-3.28943773278884

> <r_i_glide_hbond>
-0.342615842350864

> <r_i_glide_metal>
0

> <r_i_glide_rewards>
-2.14765961207709

> <r_i_glide_evdw>
-39.6598625183105

> <r_i_glide_ecoul>
-6.23878717422485

> <r_i_glide_erotb>
0.414753985343746

> <r_i_glide_esite>
-0.0656514464273909

> <r_i_glide_emodel>
-69.8720314506452

> <r_i_glide_energy>
-45.8986496925354

> <r_i_glide_einternal>
1.13470053672791

> <i_i_glide_confnum>
1

> <i_i_glide_posenum>
141

> <r_i_glide_eff_state_penalty>
0

> <s_user_duplicate_titles>
CHEMBL1952_lig122,325153

> <i_f3d_flags>
0

> <s_m_subgroup_title>
dock_pv

> <s_m_subgroupid>
dock_pv

> <b_m_subgroup_collapsed>
1

$$$$
CHEMBL1952_lig319 
                    3D
 Schrodinger Suite 2021-1.
 53 56  0  0  1  0            999 V2000
   13.5904   18.2282   31.5812 N   0  0  0  0  0  0
   13.2309   17.8211   30.3110 C   0  0  0  0  0  0
   13.8428   16.8413   29.7334 N   0  0  0  0  0  0
   14.5919   17.7357   32.3796 C   0  0  0  0  0  0
   15.2846   16.6293   31.7139 C   0  0  0  0  0  0
   14.8604   16.2654   30.4375 C   0  0  0  0  0  0
   15.6603   15.2526   29.9935 N   0  0  0  0  0  0
   16.5823   14.9740   30.9743 C   0  0  0  0  0  0
   16.3709   15.8019   32.0809 C   0  0  0  0  0  0
   14.8277   18.2309   33.4769 O   0  0  0  0  0  0
   12.1924   18.5101   29.6538 N   0  0  0  0  0  0
   17.1781   15.8221   33.3662 C   0  0  0  0  0  0
   16.5893   14.8971   34.4242 C   0  0  0  0  0  0
   17.1922   13.6664   34.7003 C   0  0  0  0  0  0
   16.5880   12.7826   35.5917 C   0  0  0  0  0  0
   15.3887   13.1303   36.2303 C   0  0  0  0  0  0
   14.8219   14.3859   35.9910 C   0  0  0  0  0  0
   15.4161   15.2618   35.0911 C   0  0  0  0  0  0
   14.7135   12.1893   37.1914 C   0  0  0  0  0  0
   14.1921   12.6134   38.2238 O   0  0  0  0  0  0
   14.7305   10.8920   36.8421 N   0  0  0  0  0  0
   14.3070    9.7414   37.6506 C   0  0  1  0  0  0
   12.8963    9.8055   38.3094 C   0  0  0  0  0  0
   12.5966    8.5950   39.2214 C   0  0  0  0  0  0
   12.8199    7.2392   38.5286 C   0  0  0  0  0  0
   14.2099    7.1516   37.8713 C   0  0  0  0  0  0
   14.5945    8.3631   36.9775 C   0  0  1  0  0  0
   13.9404    8.2607   35.5762 C   0  0  0  0  0  0
   12.5829    8.2260   35.6084 O   0  0  0  0  0  0
   14.5915    8.2282   34.5372 O   0  0  0  0  0  0
   13.1013   19.0127   31.9829 H   0  0  0  0  0  0
   15.5796   14.7986   29.0946 H   0  0  0  0  0  0
   17.3143   14.1948   30.8140 H   0  0  0  0  0  0
   11.8308   18.1406   28.7888 H   0  0  0  0  0  0
   11.4795   18.9909   30.1877 H   0  0  0  0  0  0
   17.2279   16.8315   33.7755 H   0  0  0  0  0  0
   18.2154   15.5450   33.1722 H   0  0  0  0  0  0
   18.1037   13.3779   34.1967 H   0  0  0  0  0  0
   17.0625   11.8293   35.7801 H   0  0  0  0  0  0
   13.9087   14.6819   36.4843 H   0  0  0  0  0  0
   14.9487   16.2168   34.9064 H   0  0  0  0  0  0
   15.0001   10.6880   35.8912 H   0  0  0  0  0  0
   14.9946    9.7769   38.4986 H   0  0  0  0  0  0
   12.1294    9.8642   37.5369 H   0  0  0  0  0  0
   12.7850   10.7053   38.9118 H   0  0  0  0  0  0
   11.5681    8.6520   39.5836 H   0  0  0  0  0  0
   13.2281    8.6510   40.1089 H   0  0  0  0  0  0
   12.0407    7.0734   37.7845 H   0  0  0  0  0  0
   12.7034    6.4297   39.2527 H   0  0  0  0  0  0
   14.9897    7.0343   38.6242 H   0  0  0  0  0  0
   14.3529    6.2138   37.3297 H   0  0  0  0  0  0
   15.6558    8.2912   36.7364 H   0  0  0  0  0  0
   12.1811    8.0444   34.7478 H   0  0  0  0  0  0
  1  2  1  0  0  0
  1  4  1  0  0  0
  1 31  1  0  0  0
  2  3  2  0  0  0
  2 11  1  0  0  0
  3  6  1  0  0  0
  4  5  1  0  0  0
  4 10  2  0  0  0
  5  6  2  0  0  0
  5  9  1  0  0  0
  6  7  1  0  0  0
  7  8  1  0  0  0
  7 32  1  0  0  0
  8  9  2  0  0  0
  8 33  1  0  0  0
  9 12  1  0  0  0
 11 34  1  0  0  0
 11 35  1  0  0  0
 12 13  1  0  0  0
 12 36  1  0  0  0
 12 37  1  0  0  0
 13 14  2  0  0  0
 13 18  1  0  0  0
 14 15  1  0  0  0
 14 38  1  0  0  0
 15 16  2  0  0  0
 15 39  1  0  0  0
 16 17  1  0  0  0
 16 19  1  0  0  0
 17 18  2  0  0  0
 17 40  1  0  0  0
 18 41  1  0  0  0
 19 20  2  0  0  0
 19 21  1  0  0  0
 21 22  1  0  0  0
 21 42  1  0  0  0
 22 23  1  0  0  0
 22 27  1  0  0  0
 22 43  1  0  0  0
 23 24  1  0  0  0
 23 44  1  0  0  0
 23 45  1  0  0  0
 24 25  1  0  0  0
 24 46  1  0  0  0
 24 47  1  0  0  0
 25 26  1  0  0  0
 25 48  1  0  0  0
 25 49  1  0  0  0
 26 27  1  0  0  0
 26 50  1  0  0  0
 26 51  1  0  0  0
 27 28  1  0  0  0
 27 52  1  0  0  0
 28 29  1  0  0  0
 28 30  2  0  0  0
 29 53  1  0  0  0
M  END
> <s_m_entry_id>
41009

> <s_m_entry_name>
dock_pv.126

> <s_m_Source_Path>
/home/csk/Desktop/cluster/DUD-E-result/tysy

> <s_m_Source_File>
dock_pv.maegz

> <i_m_Source_File_Index>
126

> <chembl_id>
CHEMBL4442032

> <chembl_pref_name>
None

> <i_lp_mmshare_version>
53161

> <r_lp_tautomer_probability>
1

> <s_lp_Force_Field>
OPLS_2005

> <r_lp_Energy>
24.60148

> <b_lp_Chiralities_Consistent>
1

> <s_lp_Variant>
CHEMBL1952_lig319 -4

> <s_i_glide_gridfile>
glide-grid_1syn

> <i_i_glide_lignum>
594

> <i_i_glide_rotatable_bonds>
7

> <r_i_docking_score>
-8.34642417921732

> <r_i_glide_ligand_efficiency>
-0.278214139307244

> <r_i_glide_ligand_efficiency_sa>
-0.864476016291359

> <r_i_glide_ligand_efficiency_ln>
-1.89639851509346

> <r_i_glide_gscore>
-8.34642417921732

> <r_i_glide_lipo>
-2.90531297901052

> <r_i_glide_hbond>
-0.534585405543961

> <r_i_glide_metal>
0

> <r_i_glide_rewards>
-1.70486996462158

> <r_i_glide_evdw>
-49.1290435791016

> <r_i_glide_ecoul>
-9.43435764312744

> <r_i_glide_erotb>
0.704753185130174

> <r_i_glide_esite>
-0.0348031897472446

> <r_i_glide_emodel>
-82.1848333162067

> <r_i_glide_energy>
-58.563401222229

> <r_i_glide_einternal>
12.6923513412476

> <i_i_glide_confnum>
139

> <i_i_glide_posenum>
272

> <r_i_glide_eff_state_penalty>
0

> <s_user_duplicate_titles>
CHEMBL1952_lig319 

> <i_f3d_flags>
0

> <s_m_subgroup_title>
dock_pv

> <s_m_subgroupid>
dock_pv

> <b_m_subgroup_collapsed>
1

$$$$
CHEMBL1952_lig171
                    3D
 Schrodinger Suite 2021-1.
 32 34  0  0  1  0            999 V2000
   16.2746   14.8790   34.6464 C   0  0  0  0  0  0
   16.9983   16.0038   33.4870 S   0  0  0  0  0  0
   15.7588   16.1885   32.2294 C   0  0  0  0  0  0
   14.4385   16.0220   29.9936 S   0  0  0  0  0  0
   15.7288   15.4427   31.0234 C   0  0  0  0  0  0
   13.9876   17.2397   31.1197 C   0  0  0  0  0  0
   14.7730   17.2040   32.2693 C   0  0  0  0  0  0
   14.4878   18.2058   33.3048 C   0  0  0  0  0  0
   13.4673   19.0278   32.9378 N   0  0  0  0  0  0
   12.7604   19.0282   31.7649 C   0  0  0  0  0  0
   12.9887   18.1368   30.8647 N   0  0  0  0  0  0
   16.5918   14.3196   30.4508 C   0  0  0  0  0  0
   11.7921   20.0278   31.5911 N   0  0  0  0  0  0
   15.0181   18.3789   34.3911 O   0  0  0  0  0  0
   17.5238   13.5794   31.4188 C   0  0  0  0  0  0
   14.9925   15.0761   35.1698 C   0  0  0  0  0  0
   14.4977   14.1509   36.0898 C   0  0  0  0  0  0
   15.2039   13.0665   36.4989 N   0  0  0  0  0  0
   16.4518   12.8974   35.9911 C   0  0  0  0  0  0
   17.0256   13.7828   35.0778 C   0  0  0  0  0  0
   13.2455   19.7224   33.6488 H   0  0  0  0  0  0
   15.9472   13.5688   29.9903 H   0  0  0  0  0  0
   17.1916   14.7136   29.6302 H   0  0  0  0  0  0
   11.0991   19.8853   30.8626 H   0  0  0  0  0  0
   11.3942   20.4680   32.4058 H   0  0  0  0  0  0
   17.9688   12.7159   30.9261 H   0  0  0  0  0  0
   18.3450   14.2116   31.7575 H   0  0  0  0  0  0
   16.9924   13.2051   32.2911 H   0  0  0  0  0  0
   14.3895   15.9204   34.8814 H   0  0  0  0  0  0
   13.5118   14.2713   36.5136 H   0  0  0  0  0  0
   17.0024   12.0369   36.3421 H   0  0  0  0  0  0
   18.0249   13.6148   34.7023 H   0  0  0  0  0  0
  1  2  1  0  0  0
  1 16  2  0  0  0
  1 20  1  0  0  0
  2  3  1  0  0  0
  3  5  2  0  0  0
  3  7  1  0  0  0
  4  5  1  0  0  0
  4  6  1  0  0  0
  5 12  1  0  0  0
  6 11  1  0  0  0
  6  7  2  0  0  0
  7  8  1  0  0  0
  8 14  2  0  0  0
  8  9  1  0  0  0
  9 10  1  0  0  0
  9 21  1  0  0  0
 10 11  2  0  0  0
 10 13  1  0  0  0
 12 15  1  0  0  0
 12 22  1  0  0  0
 12 23  1  0  0  0
 13 24  1  0  0  0
 13 25  1  0  0  0
 15 26  1  0  0  0
 15 27  1  0  0  0
 15 28  1  0  0  0
 16 17  1  0  0  0
 16 29  1  0  0  0
 17 18  2  0  0  0
 17 30  1  0  0  0
 18 19  1  0  0  0
 19 20  2  0  0  0
 19 31  1  0  0  0
 20 32  1  0  0  0
M  END
> <s_m_entry_id>
41010

> <s_m_entry_name>
dock_pv.127

> <s_m_Source_Path>
/home/csk/Desktop/cluster/DUD-E-result/tysy

> <s_m_Source_File>
dock_pv.maegz

> <i_m_Source_File_Index>
127

> <chembl_id>
CHEMBL550842

> <chembl_pref_name>
None

> <i_lp_mmshare_version>
53161

> <r_lp_tautomer_probability>
1

> <s_lp_Force_Field>
OPLS_2005

> <r_lp_Energy>
12.418561

> <b_lp_Chiralities_Consistent>
1

> <s_lp_Variant>
CHEMBL1952_lig171-1

> <s_i_glide_gridfile>
glide-grid_1syn

> <i_i_glide_lignum>
348

> <i_i_glide_rotatable_bonds>
3

> <r_i_docking_score>
-8.34232947267347

> <r_i_glide_ligand_efficiency>
-0.417116473633674

> <r_i_glide_ligand_efficiency_sa>
-1.13222830307257

> <r_i_glide_ligand_efficiency_ln>
-2.0878099185693

> <r_i_glide_gscore>
-8.34232947267347

> <r_i_glide_lipo>
-3.42225231382576

> <r_i_glide_hbond>
-0.456

> <r_i_glide_metal>
0

> <r_i_glide_rewards>
-1.77713522632107

> <r_i_glide_evdw>
-42.9109268188477

> <r_i_glide_ecoul>
-6.14565134048462

> <r_i_glide_erotb>
0.398069441978477

> <r_i_glide_esite>
-0.0176173324900523

> <r_i_glide_emodel>
-71.558367601505

> <r_i_glide_energy>
-49.0565781593323

> <r_i_glide_einternal>
5.85598087310791

> <i_i_glide_confnum>
6

> <i_i_glide_posenum>
390

> <r_i_glide_eff_state_penalty>
0

> <s_user_duplicate_titles>
CHEMBL1952_lig171,561858

> <i_f3d_flags>
0

> <s_m_subgroup_title>
dock_pv

> <s_m_subgroupid>
dock_pv

> <b_m_subgroup_collapsed>
1

$$$$
CHEMBL1952_lig427
                    3D
 Schrodinger Suite 2021-1.
 34 36  0  0  1  0            999 V2000
   14.8585   17.2011   32.1565 C   0  0  0  0  0  0
   14.4913   18.1536   33.2829 C   0  0  0  0  0  0
   13.4903   19.0013   32.9673 N   0  0  0  0  0  0
   15.9333   16.2820   32.2198 C   0  0  0  0  0  0
   13.0617   18.2518   30.8373 N   0  0  0  0  0  0
   14.0835   17.2996   30.9884 C   0  0  0  0  0  0
   12.8330   19.0870   31.7806 C   0  0  0  0  0  0
   17.0848   16.2277   33.5898 S   0  0  0  0  0  0
   16.2000   15.4771   31.0969 C   0  0  0  0  0  0
   14.9913   18.2258   34.3945 O   0  0  0  0  0  0
   14.3397   16.4709   29.9021 C   0  0  0  0  0  0
   15.7929   12.6736   36.1305 N   0  0  0  0  0  0
   15.3924   15.5620   29.9562 C   0  0  0  0  0  0
   16.5637   14.8441   34.5429 C   0  0  0  0  0  0
   17.3309   14.6983   31.0696 O   0  0  0  0  0  0
   15.3392   14.8673   35.2138 C   0  0  0  0  0  0
   17.4065   13.7386   34.6766 C   0  0  0  0  0  0
   11.8299   20.2003   31.6261 C   0  0  0  0  0  0
   16.9842   12.6761   35.4776 C   0  0  0  0  0  0
   14.9922   13.7627   35.9941 C   0  0  0  0  0  0
   17.1093   13.3076   30.9370 C   0  0  0  0  0  0
   13.2594   19.6570   33.7118 H   0  0  0  0  0  0
   13.7515   16.5714   29.0029 H   0  0  0  0  0  0
   15.6196   14.9610   29.0879 H   0  0  0  0  0  0
   14.6813   15.7204   35.1427 H   0  0  0  0  0  0
   18.3634   13.7055   34.1743 H   0  0  0  0  0  0
   10.9036   19.9544   32.1399 H   0  0  0  0  0  0
   12.2104   21.1319   32.0448 H   0  0  0  0  0  0
   11.6060   20.3892   30.5763 H   0  0  0  0  0  0
   17.6086   11.8043   35.6094 H   0  0  0  0  0  0
   14.0558   13.7419   36.5316 H   0  0  0  0  0  0
   18.0668   12.7988   30.8528 H   0  0  0  0  0  0
   16.6109   12.9410   31.8300 H   0  0  0  0  0  0
   16.5145   13.0429   30.0623 H   0  0  0  0  0  0
  1  2  1  0  0  0
  1  4  1  0  0  0
  1  6  2  0  0  0
  2 10  2  0  0  0
  2  3  1  0  0  0
  3  7  1  0  0  0
  3 22  1  0  0  0
  4  8  1  0  0  0
  4  9  2  0  0  0
  5  6  1  0  0  0
  5  7  2  0  0  0
  6 11  1  0  0  0
  7 18  1  0  0  0
  8 14  1  0  0  0
  9 15  1  0  0  0
  9 13  1  0  0  0
 11 13  2  0  0  0
 11 23  1  0  0  0
 12 19  2  0  0  0
 12 20  1  0  0  0
 13 24  1  0  0  0
 14 16  1  0  0  0
 14 17  2  0  0  0
 15 21  1  0  0  0
 16 20  2  0  0  0
 16 25  1  0  0  0
 17 19  1  0  0  0
 17 26  1  0  0  0
 18 27  1  0  0  0
 18 28  1  0  0  0
 18 29  1  0  0  0
 19 30  1  0  0  0
 20 31  1  0  0  0
 21 32  1  0  0  0
 21 33  1  0  0  0
 21 34  1  0  0  0
M  END
> <s_m_entry_id>
41011

> <s_m_entry_name>
dock_pv.128

> <s_m_Source_Path>
/home/csk/Desktop/cluster/DUD-E-result/tysy

> <s_m_Source_File>
dock_pv.maegz

> <i_m_Source_File_Index>
128

> <chembl_id>
CHEMBL164289

> <chembl_pref_name>
None

> <i_lp_mmshare_version>
53161

> <r_lp_tautomer_probability>
0.883938

> <s_lp_Force_Field>
OPLS_2005

> <r_lp_Energy>
23.645848

> <b_lp_Chiralities_Consistent>
1

> <s_lp_Variant>
CHEMBL1952_lig427-1

> <s_i_glide_gridfile>
glide-grid_1syn

> <i_i_glide_lignum>
826

> <i_i_glide_rotatable_bonds>
3

> <r_i_docking_score>
-8.33160461937677

> <r_i_glide_ligand_efficiency>
-0.39674307711318

> <r_i_glide_ligand_efficiency_sa>
-1.09458406614856

> <r_i_glide_ligand_efficiency_ln>
-2.05997240654856

> <r_i_glide_gscore>
-8.33160461937677

> <r_i_glide_lipo>
-3.98506696857396

> <r_i_glide_hbond>
-0.16

> <r_i_glide_metal>
0

> <r_i_glide_rewards>
-1.88122553719663

> <r_i_glide_evdw>
-42.3443374633789

> <r_i_glide_ecoul>
-3.88231539726257

> <r_i_glide_erotb>
0.409889347431831

> <r_i_glide_esite>
-0.0156372782796882

> <r_i_glide_emodel>
-67.3324246130148

> <r_i_glide_energy>
-46.2266528606415

> <r_i_glide_einternal>
2.31854271888733

> <i_i_glide_confnum>
3

> <i_i_glide_posenum>
177

> <r_i_glide_eff_state_penalty>
0

> <s_user_duplicate_titles>
CHEMBL1952_lig427,CHEMBL1952_lig427,272444

> <i_f3d_flags>
0

> <s_m_subgroup_title>
dock_pv

> <s_m_subgroupid>
dock_pv

> <b_m_subgroup_collapsed>
1

$$$$
CHEMBL1952_lig216
                    3D
 Schrodinger Suite 2021-1.
 60 62  0  0  1  0            999 V2000
   14.4257   16.9267   29.3938 N   0  0  0  0  0  0
   13.5751   17.6923   29.9610 C   0  0  0  0  0  0
   13.4283   17.8274   31.3264 N   0  0  0  0  0  0
   15.3354   16.1499   30.1266 C   0  0  0  0  0  0
   16.1860   15.4132   29.6337 O   0  0  0  0  0  0
   15.2473   16.2898   31.6412 C   0  0  0  0  0  0
   14.2695   17.1262   32.1948 C   0  0  0  0  0  0
   14.1641   17.2799   33.5700 C   0  0  0  0  0  0
   15.0627   16.6153   34.4031 C   0  0  0  0  0  0
   16.0760   15.8022   33.8752 C   0  0  0  0  0  0
   16.1543   15.6277   32.4848 C   0  0  0  0  0  0
   17.1437   15.2216   34.8127 C   0  0  0  0  0  0
   17.3682   13.7744   34.6776 N   0  0  0  0  0  0
   16.5856   12.8783   35.4701 C   0  0  0  0  0  0
   15.5585   13.3355   36.3236 C   0  0  0  0  0  0
   14.8322   12.4667   37.1361 C   0  0  0  0  0  0
   15.0910   11.0941   37.1013 C   0  0  0  0  0  0
   16.0285   10.6121   36.1862 C   0  0  0  0  0  0
   16.7861   11.4911   35.4172 C   0  0  0  0  0  0
   14.3939   10.1451   38.0349 C   0  0  0  0  0  0
   15.0430    9.3003   38.6556 O   0  0  0  0  0  0
   13.0577   10.2828   38.1214 N   0  0  0  0  0  0
   12.1441    9.4646   38.9401 C   0  0  1  0  0  0
   12.2220    7.9605   38.5173 C   0  0  0  0  0  0
   12.3215    9.7347   40.4620 C   0  0  0  0  0  0
   11.7855    8.7227   41.2090 O   0  0  0  0  0  0
   12.8141   10.7463   40.9209 O   0  0  0  0  0  0
   11.9420    7.7037   37.0156 C   0  0  0  0  0  0
   12.9153    6.7082   36.3912 C   0  0  0  0  0  0
   12.6763    5.4280   36.7905 O   0  0  0  0  0  0
   13.7921    7.0279   35.5910 O   0  0  0  0  0  0
   12.6604   18.5254   29.0955 C   0  0  0  0  0  0
   16.1917    9.2831   36.0113 F   0  0  0  0  0  0
   18.3973   13.2644   33.7401 C   0  0  0  0  0  0
   19.5195   14.2461   33.3423 C   0  0  0  0  0  0
   20.2507   14.6278   34.3909 F   0  0  0  0  0  0
   12.7490   18.4698   31.6985 H   0  0  0  0  0  0
   13.4148   17.9343   33.9914 H   0  0  0  0  0  0
   14.9920   16.7663   35.4698 H   0  0  0  0  0  0
   16.9301   15.0027   32.0657 H   0  0  0  0  0  0
   16.9211   15.4281   35.8562 H   0  0  0  0  0  0
   18.0577   15.7888   34.6463 H   0  0  0  0  0  0
   15.3001   14.3780   36.3994 H   0  0  0  0  0  0
   14.0962   12.8795   37.8115 H   0  0  0  0  0  0
   17.5161   11.0504   34.7613 H   0  0  0  0  0  0
   12.6242   11.0010   37.5603 H   0  0  0  0  0  0
   11.1393    9.8216   38.7045 H   0  0  0  0  0  0
   11.4843    7.3736   39.0646 H   0  0  0  0  0  0
   13.1886    7.5403   38.8000 H   0  0  0  0  0  0
   11.4561    7.9980   40.6748 H   0  0  0  0  0  0
   12.0168    8.6205   36.4330 H   0  0  0  0  0  0
   10.9210    7.3458   36.8715 H   0  0  0  0  0  0
   13.2168    4.7858   36.3086 H   0  0  0  0  0  0
   12.9115   18.4368   28.0379 H   0  0  0  0  0  0
   11.6201   18.2259   29.2207 H   0  0  0  0  0  0
   12.7371   19.5815   29.3569 H   0  0  0  0  0  0
   18.9312   12.4798   34.2768 H   0  0  0  0  0  0
   17.9551   12.7865   32.8641 H   0  0  0  0  0  0
   20.2009   13.8280   32.6067 H   0  0  0  0  0  0
   19.1254   15.1471   32.8753 H   0  0  0  0  0  0
  1  2  2  0  0  0
  1  4  1  0  0  0
  2  3  1  0  0  0
  2 32  1  0  0  0
  3  7  1  0  0  0
  3 37  1  0  0  0
  4  5  2  0  0  0
  4  6  1  0  0  0
  6 11  1  0  0  0
  6  7  2  0  0  0
  7  8  1  0  0  0
  8  9  2  0  0  0
  8 38  1  0  0  0
  9 10  1  0  0  0
  9 39  1  0  0  0
 10 11  2  0  0  0
 10 12  1  0  0  0
 11 40  1  0  0  0
 12 13  1  0  0  0
 12 41  1  0  0  0
 12 42  1  0  0  0
 13 14  1  0  0  0
 13 34  1  0  0  0
 14 19  1  0  0  0
 14 15  2  0  0  0
 15 16  1  0  0  0
 15 43  1  0  0  0
 16 17  2  0  0  0
 16 44  1  0  0  0
 17 18  1  0  0  0
 17 20  1  0  0  0
 18 19  2  0  0  0
 18 33  1  0  0  0
 19 45  1  0  0  0
 20 21  2  0  0  0
 20 22  1  0  0  0
 22 23  1  0  0  0
 22 46  1  0  0  0
 23 24  1  0  0  0
 23 25  1  0  0  0
 23 47  1  0  0  0
 24 28  1  0  0  0
 24 48  1  0  0  0
 24 49  1  0  0  0
 25 26  1  0  0  0
 25 27  2  0  0  0
 26 50  1  0  0  0
 28 29  1  0  0  0
 28 51  1  0  0  0
 28 52  1  0  0  0
 29 30  1  0  0  0
 29 31  2  0  0  0
 30 53  1  0  0  0
 32 54  1  0  0  0
 32 55  1  0  0  0
 32 56  1  0  0  0
 34 35  1  0  0  0
 34 57  1  0  0  0
 34 58  1  0  0  0
 35 36  1  0  0  0
 35 59  1  0  0  0
 35 60  1  0  0  0
M  END
> <s_m_entry_id>
41012

> <s_m_entry_name>
dock_pv.129

> <s_m_Source_Path>
/home/csk/Desktop/cluster/DUD-E-result/tysy

> <s_m_Source_File>
dock_pv.maegz

> <i_m_Source_File_Index>
129

> <chembl_id>
CHEMBL104358

> <chembl_pref_name>
None

> <i_lp_mmshare_version>
53161

> <r_lp_tautomer_probability>
0.116051

> <s_lp_Force_Field>
OPLS_2005

> <r_lp_Energy>
18.523679

> <b_lp_Chiralities_Consistent>
1

> <s_lp_Variant>
CHEMBL1952_lig216-2

> <s_i_glide_gridfile>
glide-grid_1syn

> <i_i_glide_lignum>
429

> <i_i_glide_rotatable_bonds>
14

> <r_i_docking_score>
-8.33157798730771

> <r_i_glide_ligand_efficiency>
-0.231432721869659

> <r_i_glide_ligand_efficiency_sa>
-0.764174009714466

> <r_i_glide_ligand_efficiency_ln>
-1.81772522360605

> <r_i_glide_gscore>
-8.33157798730771

> <r_i_glide_lipo>
-3.45269625860543

> <r_i_glide_hbond>
-0.262660897563287

> <r_i_glide_metal>
0

> <r_i_glide_rewards>
-0.733781913507674

> <r_i_glide_evdw>
-53.2856483459473

> <r_i_glide_ecoul>
-13.5913076400757

> <r_i_glide_erotb>
0.890261067685443

> <r_i_glide_esite>
-0.0697214220080423

> <r_i_glide_emodel>
-96.0234966617715

> <r_i_glide_energy>
-66.8769559860229

> <r_i_glide_einternal>
8.44245338439941

> <i_i_glide_confnum>
59

> <i_i_glide_posenum>
214

> <r_i_glide_eff_state_penalty>
0

> <s_user_duplicate_titles>
CHEMBL1952_lig216,171292

> <i_f3d_flags>
0

> <s_m_subgroup_title>
dock_pv

> <s_m_subgroupid>
dock_pv

> <b_m_subgroup_collapsed>
1

$$$$
CHEMBL1952_lig148
                    3D
 Schrodinger Suite 2021-1.
 33 35  0  0  1  0            999 V2000
   15.8565   16.2833   32.2261 N   0  0  0  0  0  0
   13.5306   19.0259   32.9315 N   0  0  0  0  0  0
   12.8100   18.9807   31.7613 C   0  0  0  0  0  0
   13.0691   18.0805   30.8692 N   0  0  0  0  0  0
   14.5678   18.2280   33.3163 C   0  0  0  0  0  0
   11.7928   19.9390   31.5907 N   0  0  0  0  0  0
   15.1164   18.4002   34.3910 O   0  0  0  0  0  0
   14.8668   17.2478   32.2844 C   0  0  0  0  0  0
   14.1031   17.2175   31.1192 C   0  0  0  0  0  0
   14.6335   16.1910   30.3404 C   0  0  0  0  0  0
   15.7068   15.6139   31.0187 C   0  0  0  0  0  0
   16.6174   14.4771   30.6024 C   0  0  0  0  0  0
   16.9065   16.0387   33.2314 C   0  0  0  0  0  0
   16.5921   14.9389   34.2451 C   0  0  0  0  0  0
   15.4719   15.0343   35.0784 C   0  0  0  0  0  0
   15.1454   13.9903   35.9397 C   0  0  0  0  0  0
   15.9374   12.8449   35.9651 C   0  0  0  0  0  0
   17.0935   12.7686   35.1911 C   0  0  0  0  0  0
   17.4213   13.8156   34.3304 C   0  0  0  0  0  0
   15.3920   11.3392   36.9922 Br  0  0  0  0  0  0
   13.2845   19.7240   33.6274 H   0  0  0  0  0  0
   11.0976   19.8272   30.8584 H   0  0  0  0  0  0
   11.4689   20.4894   32.3708 H   0  0  0  0  0  0
   14.2723   15.9028   29.3658 H   0  0  0  0  0  0
   16.3016   14.0265   29.6594 H   0  0  0  0  0  0
   17.6483   14.8062   30.4668 H   0  0  0  0  0  0
   16.6331   13.6734   31.3411 H   0  0  0  0  0  0
   17.8325   15.8171   32.7004 H   0  0  0  0  0  0
   17.1112   16.9680   33.7603 H   0  0  0  0  0  0
   14.8314   15.9026   35.0426 H   0  0  0  0  0  0
   14.2583   14.0528   36.5517 H   0  0  0  0  0  0
   17.7101   11.8817   35.2206 H   0  0  0  0  0  0
   18.2985   13.7288   33.7053 H   0  0  0  0  0  0
  1 11  1  0  0  0
  1  8  1  0  0  0
  1 13  1  0  0  0
  2  3  1  0  0  0
  2  5  1  0  0  0
  2 21  1  0  0  0
  3  6  1  0  0  0
  3  4  2  0  0  0
  4  9  1  0  0  0
  5  7  2  0  0  0
  5  8  1  0  0  0
  6 22  1  0  0  0
  6 23  1  0  0  0
  8  9  2  0  0  0
  9 10  1  0  0  0
 10 11  2  0  0  0
 10 24  1  0  0  0
 11 12  1  0  0  0
 12 25  1  0  0  0
 12 26  1  0  0  0
 12 27  1  0  0  0
 13 14  1  0  0  0
 13 28  1  0  0  0
 13 29  1  0  0  0
 14 15  2  0  0  0
 14 19  1  0  0  0
 15 16  1  0  0  0
 15 30  1  0  0  0
 16 17  2  0  0  0
 16 31  1  0  0  0
 17 18  1  0  0  0
 17 20  1  0  0  0
 18 19  2  0  0  0
 18 32  1  0  0  0
 19 33  1  0  0  0
M  END
> <s_m_entry_id>
41013

> <s_m_entry_name>
dock_pv.130

> <s_m_Source_Path>
/home/csk/Desktop/cluster/DUD-E-result/tysy

> <s_m_Source_File>
dock_pv.maegz

> <i_m_Source_File_Index>
130

> <chembl_id>
CHEMBL252338

> <chembl_pref_name>
None

> <i_lp_mmshare_version>
53161

> <r_lp_tautomer_probability>
1

> <s_lp_Force_Field>
OPLS_2005

> <r_lp_Energy>
19.94513

> <b_lp_Chiralities_Consistent>
1

> <s_lp_Variant>
CHEMBL1952_lig148-1

> <s_i_glide_gridfile>
glide-grid_1syn

> <i_i_glide_lignum>
325

> <i_i_glide_rotatable_bonds>
2

> <r_i_docking_score>
-8.32990428747476

> <r_i_glide_ligand_efficiency>
-0.416495214373738

> <r_i_glide_ligand_efficiency_sa>
-1.13054194599461

> <r_i_glide_ligand_efficiency_ln>
-2.08470030452409

> <r_i_glide_gscore>
-8.32990428747476

> <r_i_glide_lipo>
-3.34268016243607

> <r_i_glide_hbond>
-0.456

> <r_i_glide_metal>
0

> <r_i_glide_rewards>
-2.0250578382233

> <r_i_glide_evdw>
-39.4667053222656

> <r_i_glide_ecoul>
-5.71207284927368

> <r_i_glide_erotb>
0.339501215688666

> <r_i_glide_esite>
-0.0155213089997175

> <r_i_glide_emodel>
-68.8485323108321

> <r_i_glide_energy>
-45.1787781715393

> <r_i_glide_einternal>
0.211195409297943

> <i_i_glide_confnum>
4

> <i_i_glide_posenum>
221

> <r_i_glide_eff_state_penalty>
0

> <s_user_duplicate_titles>
CHEMBL1952_lig148

> <i_f3d_flags>
0

> <s_m_subgroup_title>
dock_pv

> <s_m_subgroupid>
dock_pv

> <b_m_subgroup_collapsed>
1

$$$$
CHEMBL1952_lig161
                    3D
 Schrodinger Suite 2021-1.
 29 31  0  0  1  0            999 V2000
   13.4578   19.0265   32.9354 N   0  0  0  0  0  0
   12.7367   19.0331   31.7690 C   0  0  0  0  0  0
   12.9317   18.1296   30.8736 N   0  0  0  0  0  0
   14.4623   18.1808   33.2989 C   0  0  0  0  0  0
   14.7343   17.1915   32.2498 C   0  0  0  0  0  0
   13.9246   17.2234   31.1150 C   0  0  0  0  0  0
   14.3447   15.9956   29.9833 S   0  0  0  0  0  0
   15.6817   15.4651   30.9711 C   0  0  0  0  0  0
   15.7198   16.1804   32.1813 C   0  0  0  0  0  0
   16.6175   14.4003   30.4421 C   0  0  0  0  0  0
   17.0098   15.9548   33.3754 S   0  0  0  0  0  0
   11.7921   20.0541   31.5905 N   0  0  0  0  0  0
   14.9922   18.3268   34.3906 O   0  0  0  0  0  0
   16.3230   14.8465   34.5730 C   0  0  0  0  0  0
   17.1038   13.7787   35.0239 C   0  0  0  0  0  0
   14.5869   14.1247   36.0684 C   0  0  0  0  0  0
   15.0447   15.0311   35.1110 C   0  0  0  0  0  0
   15.3248   13.0714   36.5023 N   0  0  0  0  0  0
   16.5677   12.9140   35.9801 C   0  0  0  0  0  0
   13.2554   19.7256   33.6475 H   0  0  0  0  0  0
   17.6525   14.5938   30.7250 H   0  0  0  0  0  0
   16.3724   13.4068   30.8118 H   0  0  0  0  0  0
   16.5945   14.3407   29.3539 H   0  0  0  0  0  0
   11.0863   19.9262   30.8714 H   0  0  0  0  0  0
   11.4157   20.5079   32.4088 H   0  0  0  0  0  0
   18.1007   13.6200   34.6375 H   0  0  0  0  0  0
   13.6056   14.2362   36.5048 H   0  0  0  0  0  0
   14.4171   15.8516   34.8060 H   0  0  0  0  0  0
   17.1435   12.0795   36.3515 H   0  0  0  0  0  0
  1  4  1  0  0  0
  1  2  1  0  0  0
  1 20  1  0  0  0
  2 12  1  0  0  0
  2  3  2  0  0  0
  3  6  1  0  0  0
  4 13  2  0  0  0
  4  5  1  0  0  0
  5  9  1  0  0  0
  5  6  2  0  0  0
  6  7  1  0  0  0
  7  8  1  0  0  0
  8 10  1  0  0  0
  8  9  2  0  0  0
  9 11  1  0  0  0
 10 21  1  0  0  0
 10 22  1  0  0  0
 10 23  1  0  0  0
 11 14  1  0  0  0
 12 24  1  0  0  0
 12 25  1  0  0  0
 14 15  2  0  0  0
 14 17  1  0  0  0
 15 19  1  0  0  0
 15 26  1  0  0  0
 16 18  1  0  0  0
 16 17  2  0  0  0
 16 27  1  0  0  0
 17 28  1  0  0  0
 18 19  2  0  0  0
 19 29  1  0  0  0
M  END
> <s_m_entry_id>
41014

> <s_m_entry_name>
dock_pv.131

> <s_m_Source_Path>
/home/csk/Desktop/cluster/DUD-E-result/tysy

> <s_m_Source_File>
dock_pv.maegz

> <i_m_Source_File_Index>
131

> <chembl_id>
CHEMBL495125

> <chembl_pref_name>
None

> <i_lp_mmshare_version>
53161

> <r_lp_tautomer_probability>
1

> <s_lp_Force_Field>
OPLS_2005

> <r_lp_Energy>
15.069039

> <b_lp_Chiralities_Consistent>
1

> <s_lp_Variant>
CHEMBL1952_lig161-1

> <s_i_glide_gridfile>
glide-grid_1syn

> <i_i_glide_lignum>
338

> <i_i_glide_rotatable_bonds>
2

> <r_i_docking_score>
-8.32816402816842

> <r_i_glide_ligand_efficiency>
-0.43832442253518

> <r_i_glide_ligand_efficiency_sa>
-1.16962561062001

> <r_i_glide_ligand_efficiency_ln>
-2.11136845370298

> <r_i_glide_gscore>
-8.32816402816842

> <r_i_glide_lipo>
-3.36638231100459

> <r_i_glide_hbond>
-0.456

> <r_i_glide_metal>
0

> <r_i_glide_rewards>
-1.9379208397881

> <r_i_glide_evdw>
-40.9134292602539

> <r_i_glide_ecoul>
-6.24590110778809

> <r_i_glide_erotb>
0.432293129775446

> <r_i_glide_esite>
-0.0175973779702668

> <r_i_glide_emodel>
-71.4119446760832

> <r_i_glide_energy>
-47.159330368042

> <r_i_glide_einternal>
0.436793655157089

> <i_i_glide_confnum>
1

> <i_i_glide_posenum>
148

> <r_i_glide_eff_state_penalty>
0

> <s_user_duplicate_titles>
CHEMBL1952_lig161,469531

> <i_f3d_flags>
0

> <s_m_subgroup_title>
dock_pv

> <s_m_subgroupid>
dock_pv

> <b_m_subgroup_collapsed>
1

$$$$
CHEMBL1952_lig34
                    3D
 Schrodinger Suite 2021-1.
 30 32  0  0  1  0            999 V2000
   14.6611   16.9975   32.1836 C   0  0  0  0  0  0
   14.6082   18.1756   33.0620 C   0  0  0  0  0  0
   13.6859   16.9089   31.2323 C   0  0  0  0  0  0
   13.6040   19.0282   32.7913 N   0  0  0  0  0  0
   15.7460   15.9635   32.2451 C   0  0  0  0  0  0
   12.7600   17.8921   31.0100 N   0  0  0  0  0  0
   12.7287   18.9198   31.7714 C   0  0  0  0  0  0
   15.9405   15.0841   31.1547 C   0  0  0  0  0  0
   13.6045   15.7069   30.3016 C   0  0  0  0  0  0
   14.9960   15.1207   29.9527 C   0  0  1  0  0  0
   16.9918   14.1579   31.1922 C   0  0  0  0  0  0
   15.3647   18.4553   33.9858 O   0  0  0  0  0  0
   16.5741   15.8176   33.3688 C   0  0  0  0  0  0
   11.7931   19.9457   31.5914 N   0  0  0  0  0  0
   17.6017   14.8829   33.3936 C   0  0  0  0  0  0
   17.8240   14.0590   32.2998 C   0  0  0  0  0  0
   18.5916   14.7477   34.7897 Cl  0  0  0  0  0  0
   15.6350   15.8658   28.7914 C   0  0  0  0  0  0
   13.0633   15.9717   29.3944 H   0  0  0  0  0  0
   12.9947   14.9492   30.7938 H   0  0  0  0  0  0
   14.8270   14.0959   29.6118 H   0  0  0  0  0  0
   17.1521   13.4880   30.3603 H   0  0  0  0  0  0
   13.5281   19.8038   33.4358 H   0  0  0  0  0  0
   16.4323   16.4101   34.2548 H   0  0  0  0  0  0
   11.0326   19.8301   30.9303 H   0  0  0  0  0  0
   11.6620   20.6714   32.2773 H   0  0  0  0  0  0
   18.6246   13.3328   32.3137 H   0  0  0  0  0  0
   16.5923   15.4296   28.5129 H   0  0  0  0  0  0
   14.9883   15.8272   27.9149 H   0  0  0  0  0  0
   15.8036   16.9155   29.0346 H   0  0  0  0  0  0
  1  2  1  0  0  0
  1  5  1  0  0  0
  1  3  2  0  0  0
  2  4  1  0  0  0
  2 12  2  0  0  0
  3  6  1  0  0  0
  3  9  1  0  0  0
  4  7  1  0  0  0
  4 23  1  0  0  0
  5  8  2  0  0  0
  5 13  1  0  0  0
  6  7  2  0  0  0
  7 14  1  0  0  0
  8 10  1  0  0  0
  8 11  1  0  0  0
  9 10  1  0  0  0
  9 19  1  0  0  0
  9 20  1  0  0  0
 10 18  1  0  0  0
 10 21  1  0  0  0
 11 16  2  0  0  0
 11 22  1  0  0  0
 13 15  2  0  0  0
 13 24  1  0  0  0
 14 25  1  0  0  0
 14 26  1  0  0  0
 15 16  1  0  0  0
 15 17  1  0  0  0
 16 27  1  0  0  0
 18 28  1  0  0  0
 18 29  1  0  0  0
 18 30  1  0  0  0
M  END
> <s_m_entry_id>
41015

> <s_m_entry_name>
dock_pv.132

> <s_m_Source_Path>
/home/csk/Desktop/cluster/DUD-E-result/tysy

> <s_m_Source_File>
dock_pv.maegz

> <i_m_Source_File_Index>
132

> <chembl_id>
CHEMBL73487

> <chembl_pref_name>
None

> <i_lp_mmshare_version>
53161

> <r_lp_tautomer_probability>
0.878315377147829

> <s_lp_Force_Field>
OPLS_2005

> <r_lp_Energy>
19.904451

> <b_lp_Chiralities_Consistent>
1

> <s_lp_Variant>
CHEMBL1952_lig34-1

> <s_i_glide_gridfile>
glide-grid_1syn

> <i_i_glide_lignum>
43

> <i_i_glide_rotatable_bonds>
0

> <r_i_docking_score>
-8.3230075726823

> <r_i_glide_ligand_efficiency>
-0.462389309593461

> <r_i_glide_ligand_efficiency_sa>
-1.21180280272374

> <r_i_glide_ligand_efficiency_ln>
-2.13938617968562

> <r_i_glide_gscore>
-8.3230075726823

> <r_i_glide_lipo>
-3.12379925822087

> <r_i_glide_hbond>
-0.442818750283206

> <r_i_glide_metal>
0

> <r_i_glide_rewards>
-2.03242382841492

> <r_i_glide_evdw>
-34.6746482849121

> <r_i_glide_ecoul>
-6.56048583984375

> <r_i_glide_erotb>
0

> <r_i_glide_esite>
-0.0061604455411332

> <r_i_glide_emodel>
-60.552928553225

> <r_i_glide_energy>
-41.2351341247559

> <r_i_glide_einternal>
0

> <i_i_glide_confnum>
1

> <i_i_glide_posenum>
16

> <r_i_glide_eff_state_penalty>
0

> <s_user_duplicate_titles>
CHEMBL1952_lig34,CHEMBL1952_lig34,CHEMBL1952_lig34

> <i_f3d_flags>
0

> <s_m_subgroup_title>
dock_pv

> <s_m_subgroupid>
dock_pv

> <b_m_subgroup_collapsed>
1

$$$$
CHEMBL1952_lig137
                    3D
 Schrodinger Suite 2021-1.
 34 36  0  0  1  0            999 V2000
   12.9255   18.7214   31.4091 N   0  0  0  0  0  0
   12.7352   18.2182   30.1690 C   0  0  0  0  0  0
   13.3694   17.1730   29.5927 N   0  0  0  0  0  0
   13.8922   18.1673   32.1823 C   0  0  0  0  0  0
   14.1866   18.6278   33.4373 O   0  0  0  0  0  0
   15.7390   16.2449   32.1228 C   0  0  0  0  0  0
   14.6446   17.0756   31.6862 C   0  0  0  0  0  0
   14.2994   16.6379   30.3821 C   0  0  0  0  0  0
   15.1087   15.5741   30.0745 N   0  0  0  0  0  0
   15.9886   15.3283   31.1026 C   0  0  0  0  0  0
   16.9911   14.1911   30.9786 C   0  0  0  0  0  0
   11.7943   18.8499   29.3850 N   0  0  0  0  0  0
   18.4460   14.6281   31.1908 C   0  0  0  0  0  0
   16.6727   16.4346   33.5908 S   0  0  0  0  0  0
   15.9222   15.2667   34.6766 C   0  0  0  0  0  0
   16.6975   14.2181   35.1694 C   0  0  0  0  0  0
   16.1378   13.3060   36.0590 C   0  0  0  0  0  0
   14.8163   13.4639   36.4676 C   0  0  0  0  0  0
   14.0476   14.5238   35.9910 C   0  0  0  0  0  0
   14.6009   15.4320   35.0919 C   0  0  0  0  0  0
   14.2746   12.5828   37.3381 F   0  0  0  0  0  0
   13.6187   19.3635   33.6954 H   0  0  0  0  0  0
   15.1041   15.0361   29.2218 H   0  0  0  0  0  0
   16.7571   13.4109   31.7029 H   0  0  0  0  0  0
   16.9152   13.7070   30.0030 H   0  0  0  0  0  0
   11.0947   19.4283   29.8409 H   0  0  0  0  0  0
   11.6151   18.4896   28.4646 H   0  0  0  0  0  0
   19.1497   13.8281   31.0009 H   0  0  0  0  0  0
   18.7162   15.4280   30.5055 H   0  0  0  0  0  0
   18.6319   14.9814   32.2036 H   0  0  0  0  0  0
   17.7255   14.1049   34.8572 H   0  0  0  0  0  0
   16.7290   12.4883   36.4429 H   0  0  0  0  0  0
   13.0221   14.6291   36.3125 H   0  0  0  0  0  0
   14.0103   16.2573   34.7224 H   0  0  0  0  0  0
  1  4  2  0  0  0
  1  2  1  0  0  0
  2 12  1  0  0  0
  2  3  2  0  0  0
  3  8  1  0  0  0
  4  5  1  0  0  0
  4  7  1  0  0  0
  5 22  1  0  0  0
  6  7  1  0  0  0
  6 14  1  0  0  0
  6 10  2  0  0  0
  7  8  2  0  0  0
  8  9  1  0  0  0
  9 10  1  0  0  0
  9 23  1  0  0  0
 10 11  1  0  0  0
 11 13  1  0  0  0
 11 24  1  0  0  0
 11 25  1  0  0  0
 12 26  1  0  0  0
 12 27  1  0  0  0
 13 28  1  0  0  0
 13 29  1  0  0  0
 13 30  1  0  0  0
 14 15  1  0  0  0
 15 16  2  0  0  0
 15 20  1  0  0  0
 16 17  1  0  0  0
 16 31  1  0  0  0
 17 18  2  0  0  0
 17 32  1  0  0  0
 18 19  1  0  0  0
 18 21  1  0  0  0
 19 20  2  0  0  0
 19 33  1  0  0  0
 20 34  1  0  0  0
M  END
> <s_m_entry_id>
41016

> <s_m_entry_name>
dock_pv.133

> <s_m_Source_Path>
/home/csk/Desktop/cluster/DUD-E-result/tysy

> <s_m_Source_File>
dock_pv.maegz

> <i_m_Source_File_Index>
133

> <chembl_id>
CHEMBL381723

> <chembl_pref_name>
None

> <i_lp_mmshare_version>
53161

> <r_lp_tautomer_probability>
1

> <s_lp_Force_Field>
OPLS_2005

> <r_lp_Energy>
2.362764

> <b_lp_Chiralities_Consistent>
1

> <s_lp_Variant>
CHEMBL1952_lig137-1

> <s_i_glide_gridfile>
glide-grid_1syn

> <i_i_glide_lignum>
314

> <i_i_glide_rotatable_bonds>
4

> <r_i_docking_score>
-8.32290072341067

> <r_i_glide_ligand_efficiency>
-0.396328605876699

> <r_i_glide_ligand_efficiency_sa>
-1.09344057143498

> <r_i_glide_ligand_efficiency_ln>
-2.05782038585882

> <r_i_glide_gscore>
-8.32290072341067

> <r_i_glide_lipo>
-3.34742310224419

> <r_i_glide_hbond>
-0.404812057068905

> <r_i_glide_metal>
0

> <r_i_glide_rewards>
-2.05643971051326

> <r_i_glide_evdw>
-37.2159233093262

> <r_i_glide_ecoul>
-6.58433437347412

> <r_i_glide_erotb>
0.398181680891023

> <r_i_glide_esite>
-0.0639612129879141

> <r_i_glide_emodel>
-64.6048926128793

> <r_i_glide_energy>
-43.8002576828003

> <r_i_glide_einternal>
2.46388030052185

> <i_i_glide_confnum>
6

> <i_i_glide_posenum>
40

> <r_i_glide_eff_state_penalty>
0

> <s_user_duplicate_titles>
CHEMBL1952_lig137

> <i_f3d_flags>
0

> <s_m_subgroup_title>
dock_pv

> <s_m_subgroupid>
dock_pv

> <b_m_subgroup_collapsed>
1

$$$$
CHEMBL1952_lig17
                    3D
 Schrodinger Suite 2021-1.
 33 35  0  0  1  0            999 V2000
   13.6154   18.8036   32.7903 N   0  0  0  0  0  0
   12.9964   18.6382   31.5694 C   0  0  0  0  0  0
   13.3194   17.6623   30.7862 N   0  0  0  0  0  0
   14.6563   18.0834   33.3053 C   0  0  0  0  0  0
   15.0724   17.0296   32.3864 C   0  0  0  0  0  0
   14.3591   16.8820   31.2029 C   0  0  0  0  0  0
   14.9229   15.8603   30.4962 N   0  0  0  0  0  0
   16.0013   15.3658   31.1944 C   0  0  0  0  0  0
   16.1082   16.0744   32.3946 C   0  0  0  0  0  0
   16.8414   14.2446   30.6305 C   0  0  0  0  0  0
   17.3923   15.8892   33.5910 S   0  0  0  0  0  0
   12.0270   19.5868   31.2105 N   0  0  0  0  0  0
   15.1266   18.3736   34.3911 O   0  0  0  0  0  0
   16.7936   14.5546   34.5669 C   0  0  0  0  0  0
   17.5367   13.3779   34.6252 C   0  0  0  0  0  0
   17.0788   12.3108   35.3915 C   0  0  0  0  0  0
   15.8809   12.4156   36.1136 C   0  0  0  0  0  0
   15.1575   13.6179   36.0624 C   0  0  0  0  0  0
   15.6115   14.6850   35.2921 C   0  0  0  0  0  0
   15.3921   11.2737   36.9248 N   0  3  0  0  0  0
   14.3656   11.4180   37.5830 O   0  0  0  0  0  0
   16.0327   10.2248   36.9123 O   0  5  0  0  0  0
   13.3213   19.5699   33.3831 H   0  0  0  0  0  0
   14.6132   15.5475   29.5885 H   0  0  0  0  0  0
   17.9056   14.4130   30.8013 H   0  0  0  0  0  0
   16.5969   13.2880   31.0919 H   0  0  0  0  0  0
   16.7077   14.1241   29.5554 H   0  0  0  0  0  0
   11.3753   19.3754   30.4625 H   0  0  0  0  0  0
   11.5801   20.1246   31.9354 H   0  0  0  0  0  0
   18.4601   13.2848   34.0702 H   0  0  0  0  0  0
   17.6650   11.4029   35.4177 H   0  0  0  0  0  0
   14.2374   13.7333   36.6177 H   0  0  0  0  0  0
   15.0504   15.6085   35.2620 H   0  0  0  0  0  0
  1  2  1  0  0  0
  1  4  1  0  0  0
  1 23  1  0  0  0
  2 12  1  0  0  0
  2  3  2  0  0  0
  3  6  1  0  0  0
  4 13  2  0  0  0
  4  5  1  0  0  0
  5  6  2  0  0  0
  5  9  1  0  0  0
  6  7  1  0  0  0
  7  8  1  0  0  0
  7 24  1  0  0  0
  8  9  2  0  0  0
  8 10  1  0  0  0
  9 11  1  0  0  0
 10 25  1  0  0  0
 10 26  1  0  0  0
 10 27  1  0  0  0
 11 14  1  0  0  0
 12 28  1  0  0  0
 12 29  1  0  0  0
 14 15  2  0  0  0
 14 19  1  0  0  0
 15 16  1  0  0  0
 15 30  1  0  0  0
 16 17  2  0  0  0
 16 31  1  0  0  0
 17 18  1  0  0  0
 17 20  1  0  0  0
 18 19  2  0  0  0
 18 32  1  0  0  0
 19 33  1  0  0  0
 20 21  2  0  0  0
 20 22  1  0  0  0
M  CHG  2  20   1  22  -1
M  END
> <s_m_entry_id>
41017

> <s_m_entry_name>
dock_pv.134

> <s_m_Source_Path>
/home/csk/Desktop/cluster/DUD-E-result/tysy

> <s_m_Source_File>
dock_pv.maegz

> <i_m_Source_File_Index>
134

> <chembl_id>
CHEMBL400364

> <chembl_pref_name>
None

> <i_lp_mmshare_version>
53161

> <r_lp_tautomer_probability>
1

> <s_lp_Force_Field>
OPLS_2005

> <r_lp_Energy>
17.872943

> <b_lp_Chiralities_Consistent>
1

> <s_lp_Variant>
CHEMBL1952_lig17-1

> <s_i_glide_gridfile>
glide-grid_1syn

> <i_i_glide_lignum>
18

> <i_i_glide_rotatable_bonds>
3

> <r_i_docking_score>
-8.32117768735534

> <r_i_glide_ligand_efficiency>
-0.378235349425243

> <r_i_glide_ligand_efficiency_sa>
-1.05983032424172

> <r_i_glide_ligand_efficiency_ln>
-2.03399934912055

> <r_i_glide_gscore>
-8.32117768735534

> <r_i_glide_lipo>
-3.04261100385814

> <r_i_glide_hbond>
-0.292862986437862

> <r_i_glide_metal>
0

> <r_i_glide_rewards>
-2.18014021445077

> <r_i_glide_evdw>
-43.0372848510742

> <r_i_glide_ecoul>
-6.82476234436035

> <r_i_glide_erotb>
0.370015111599192

> <r_i_glide_esite>
0

> <r_i_glide_emodel>
-76.0531985133252

> <r_i_glide_energy>
-49.8620471954346

> <r_i_glide_einternal>
0.702294647693634

> <i_i_glide_confnum>
7

> <i_i_glide_posenum>
378

> <r_i_glide_eff_state_penalty>
0

> <s_user_duplicate_titles>
CHEMBL1952_lig17,419069

> <i_f3d_flags>
0

> <s_m_subgroup_title>
dock_pv

> <s_m_subgroupid>
dock_pv

> <b_m_subgroup_collapsed>
1

$$$$
CHEMBL1952_lig77
                    3D
 Schrodinger Suite 2021-1.
 29 31  0  0  1  0            999 V2000
   15.7471   15.8504   31.7521 C   0  0  0  0  0  0
   14.7110   16.8679   31.7598 C   0  0  0  0  0  0
   16.2201   15.2992   32.8914 N   0  0  0  0  0  0
   15.6904   15.7059   34.0536 C   0  0  0  0  0  0
   14.7727   16.6767   34.2095 N   0  0  0  0  0  0
   14.2979   17.2608   33.0734 C   0  0  0  0  0  0
   14.0926   17.5087   30.6272 C   0  0  0  0  0  0
   13.1423   18.5722   30.8334 C   0  0  0  0  0  0
   12.7789   18.9378   32.1600 C   0  0  0  0  0  0
   13.3565   18.2838   33.2433 C   0  0  0  0  0  0
   16.2990   15.4280   30.5803 O   0  0  0  0  0  0
   16.1094   15.0280   35.1896 N   0  0  0  0  0  0
   14.3576   17.1402   29.2690 C   0  0  0  0  0  0
   11.7379   20.0385   32.3911 C   0  0  0  0  0  0
   10.9920   19.9103   33.5910 O   0  0  0  0  0  0
   12.5920   19.2460   29.6980 C   0  0  0  0  0  0
   13.7920   17.8279   28.2039 C   0  0  0  0  0  0
   12.9479   18.8953   28.4113 C   0  0  0  0  0  0
   13.0793   18.5632   34.2502 H   0  0  0  0  0  0
   16.9579   14.7535   30.7612 H   0  0  0  0  0  0
   15.7920   15.3470   36.0939 H   0  0  0  0  0  0
   16.8259   14.3266   35.0871 H   0  0  0  0  0  0
   14.9899   16.3179   28.9967 H   0  0  0  0  0  0
   12.2192   21.0172   32.3577 H   0  0  0  0  0  0
   10.9920   20.0295   31.6119 H   0  0  0  0  0  0
   11.5846   20.2280   34.3003 H   0  0  0  0  0  0
   11.9047   20.0703   29.7989 H   0  0  0  0  0  0
   14.0034   17.5224   27.1910 H   0  0  0  0  0  0
   12.5204   19.4227   27.5703 H   0  0  0  0  0  0
  1  2  1  0  0  0
  1  3  2  0  0  0
  1 11  1  0  0  0
  2  6  2  0  0  0
  2  7  1  0  0  0
  3  4  1  0  0  0
  4  5  2  0  0  0
  4 12  1  0  0  0
  5  6  1  0  0  0
  6 10  1  0  0  0
  7  8  2  0  0  0
  7 13  1  0  0  0
  8  9  1  0  0  0
  8 16  1  0  0  0
  9 14  1  0  0  0
  9 10  2  0  0  0
 10 19  1  0  0  0
 11 20  1  0  0  0
 12 21  1  0  0  0
 12 22  1  0  0  0
 13 17  2  0  0  0
 13 23  1  0  0  0
 14 15  1  0  0  0
 14 24  1  0  0  0
 14 25  1  0  0  0
 15 26  1  0  0  0
 16 18  2  0  0  0
 16 27  1  0  0  0
 17 18  1  0  0  0
 17 28  1  0  0  0
 18 29  1  0  0  0
M  END
> <s_m_entry_id>
41018

> <s_m_entry_name>
dock_pv.135

> <s_m_Source_Path>
/home/csk/Desktop/cluster/DUD-E-result/tysy

> <s_m_Source_File>
dock_pv.maegz

> <i_m_Source_File_Index>
135

> <chembl_id>
CHEMBL446665

> <chembl_pref_name>
None

> <i_lp_mmshare_version>
53161

> <r_lp_tautomer_probability>
1

> <s_lp_Force_Field>
OPLS_2005

> <r_lp_Energy>
14.799618

> <b_lp_Chiralities_Consistent>
1

> <s_lp_Variant>
CHEMBL1952_lig77-1

> <s_i_glide_gridfile>
glide-grid_1syn

> <i_i_glide_lignum>
121

> <i_i_glide_rotatable_bonds>
3

> <r_i_docking_score>
-8.30740504437385

> <r_i_glide_ligand_efficiency>
-0.461522502465214

> <r_i_glide_ligand_efficiency_sa>
-1.20953112540413

> <r_i_glide_ligand_efficiency_ln>
-2.13537563023703

> <r_i_glide_gscore>
-8.30740504437385

> <r_i_glide_lipo>
-2.23799030847177

> <r_i_glide_hbond>
-0.456

> <r_i_glide_metal>
0

> <r_i_glide_rewards>
-2.79261276548522

> <r_i_glide_evdw>
-29.458381652832

> <r_i_glide_ecoul>
-10.9699201583862

> <r_i_glide_erotb>
0.297605135982675

> <r_i_glide_esite>
0

> <r_i_glide_emodel>
-59.195388344072

> <r_i_glide_energy>
-40.4283018112183

> <r_i_glide_einternal>
3.31933307647705

> <i_i_glide_confnum>
3

> <i_i_glide_posenum>
243

> <r_i_glide_eff_state_penalty>
0

> <s_user_duplicate_titles>
CHEMBL1952_lig77

> <i_f3d_flags>
0

> <s_m_subgroup_title>
dock_pv

> <s_m_subgroupid>
dock_pv

> <b_m_subgroup_collapsed>
1

$$$$
CHEMBL1952_lig180
                    3D
 Schrodinger Suite 2021-1.
 54 56  0  0  1  0            999 V2000
   13.9882   17.5862   31.7654 N   0  0  0  0  0  0
   13.8133   16.8876   30.6038 C   0  0  0  0  0  0
   14.6143   15.9426   30.2685 N   0  0  0  0  0  0
   14.9769   17.4221   32.6768 C   0  0  0  0  0  0
   12.6337   17.2480   29.7267 C   0  0  0  0  0  0
   15.0590   18.1375   33.6695 O   0  0  0  0  0  0
   15.9287   16.3142   32.2992 C   0  0  0  0  0  0
   15.7053   15.6306   31.1011 C   0  0  0  0  0  0
   16.5923   14.6270   30.7115 C   0  0  0  0  0  0
   17.7045   14.3226   31.5061 C   0  0  0  0  0  0
   17.9364   15.0282   32.6951 C   0  0  0  0  0  0
   17.0326   16.0176   33.0964 C   0  0  0  0  0  0
   19.2081   14.8014   33.5160 C   0  0  0  0  0  0
   19.3666   13.4284   33.9783 N   0  0  0  0  0  0
   18.4115   12.7458   34.7394 C   0  0  0  0  0  0
   18.5922   11.3772   34.8930 C   0  0  0  0  0  0
   17.6540   10.6254   35.5817 C   0  0  0  0  0  0
   16.5145   11.2302   36.1152 C   0  0  0  0  0  0
   16.3490   12.6157   35.9908 C   0  0  0  0  0  0
   17.3028   13.3708   35.3187 C   0  0  0  0  0  0
   15.4770   10.3804   36.7910 C   0  0  0  0  0  0
   15.7919    9.4225   37.4979 O   0  0  0  0  0  0
   14.2079   10.7159   36.5209 N   0  0  0  0  0  0
   13.0289    9.9220   36.8808 C   0  0  1  0  0  0
   11.8319   10.8723   37.1759 C   0  0  0  0  0  0
   12.7462    8.8765   35.7728 C   0  0  0  0  0  0
   11.5630    8.2475   35.9959 O   0  0  0  0  0  0
   13.4884    8.6277   34.8428 O   0  0  0  0  0  0
   12.1075   12.0580   38.1392 C   0  0  0  0  0  0
   12.4450   11.6477   39.5743 C   0  0  0  0  0  0
   13.6830   11.0887   39.6867 O   0  0  0  0  0  0
   11.6938   11.8300   40.5313 O   0  0  0  0  0  0
   13.3551   18.3370   31.9844 H   0  0  0  0  0  0
   11.8599   16.4812   29.7870 H   0  0  0  0  0  0
   12.1795   18.1978   30.0191 H   0  0  0  0  0  0
   12.9384   17.3437   28.6828 H   0  0  0  0  0  0
   16.4271   14.0943   29.7866 H   0  0  0  0  0  0
   18.4009   13.5582   31.1891 H   0  0  0  0  0  0
   17.2233   16.5889   33.9914 H   0  0  0  0  0  0
   19.2528   15.4834   34.3655 H   0  0  0  0  0  0
   20.0604   15.0286   32.8771 H   0  0  0  0  0  0
   20.1247   12.8753   33.5716 H   0  0  0  0  0  0
   19.4485   10.8860   34.4530 H   0  0  0  0  0  0
   17.8064    9.5613   35.6482 H   0  0  0  0  0  0
   15.4942   13.1213   36.4174 H   0  0  0  0  0  0
   17.1641   14.4376   35.2506 H   0  0  0  0  0  0
   14.0500   11.4638   35.8617 H   0  0  0  0  0  0
   13.2399    9.3427   37.7818 H   0  0  0  0  0  0
   11.0006   10.2908   37.5815 H   0  0  0  0  0  0
   11.4631   11.2918   36.2375 H   0  0  0  0  0  0
   11.3921    7.6438   35.2588 H   0  0  0  0  0  0
   11.2146   12.6824   38.1819 H   0  0  0  0  0  0
   12.8949   12.7057   37.7548 H   0  0  0  0  0  0
   14.1300   11.0019   38.8409 H   0  0  0  0  0  0
  1  2  1  0  0  0
  1  4  1  0  0  0
  1 33  1  0  0  0
  2  3  2  0  0  0
  2  5  1  0  0  0
  3  8  1  0  0  0
  4  7  1  0  0  0
  4  6  2  0  0  0
  5 34  1  0  0  0
  5 35  1  0  0  0
  5 36  1  0  0  0
  7  8  2  0  0  0
  7 12  1  0  0  0
  8  9  1  0  0  0
  9 10  2  0  0  0
  9 37  1  0  0  0
 10 11  1  0  0  0
 10 38  1  0  0  0
 11 12  2  0  0  0
 11 13  1  0  0  0
 12 39  1  0  0  0
 13 14  1  0  0  0
 13 40  1  0  0  0
 13 41  1  0  0  0
 14 15  1  0  0  0
 14 42  1  0  0  0
 15 16  2  0  0  0
 15 20  1  0  0  0
 16 17  1  0  0  0
 16 43  1  0  0  0
 17 18  2  0  0  0
 17 44  1  0  0  0
 18 19  1  0  0  0
 18 21  1  0  0  0
 19 20  2  0  0  0
 19 45  1  0  0  0
 20 46  1  0  0  0
 21 22  2  0  0  0
 21 23  1  0  0  0
 23 24  1  0  0  0
 23 47  1  0  0  0
 24 25  1  0  0  0
 24 26  1  0  0  0
 24 48  1  0  0  0
 25 29  1  0  0  0
 25 49  1  0  0  0
 25 50  1  0  0  0
 26 27  1  0  0  0
 26 28  2  0  0  0
 27 51  1  0  0  0
 29 30  1  0  0  0
 29 52  1  0  0  0
 29 53  1  0  0  0
 30 31  1  0  0  0
 30 32  2  0  0  0
 31 54  1  0  0  0
M  END
> <s_m_entry_id>
41019

> <s_m_entry_name>
dock_pv.136

> <s_m_Source_Path>
/home/csk/Desktop/cluster/DUD-E-result/tysy

> <s_m_Source_File>
dock_pv.maegz

> <i_m_Source_File_Index>
136

> <chembl_id>
CHEMBL70515

> <chembl_pref_name>
None

> <i_lp_mmshare_version>
53161

> <r_lp_tautomer_probability>
0.883938

> <s_lp_Force_Field>
OPLS_2005

> <r_lp_Energy>
21.551187

> <b_lp_Chiralities_Consistent>
1

> <s_lp_Variant>
CHEMBL1952_lig180-1

> <s_i_glide_gridfile>
glide-grid_1syn

> <i_i_glide_lignum>
357

> <i_i_glide_rotatable_bonds>
12

> <r_i_docking_score>
-8.30694947101858

> <r_i_glide_ligand_efficiency>
-0.259592170969331

> <r_i_glide_ligand_efficiency_sa>
-0.824153769606749

> <r_i_glide_ligand_efficiency_ln>
-1.86015242545146

> <r_i_glide_gscore>
-8.30694947101858

> <r_i_glide_lipo>
-2.81751419423463

> <r_i_glide_hbond>
-0.484984477288335

> <r_i_glide_metal>
0

> <r_i_glide_rewards>
-1.05571907178974

> <r_i_glide_evdw>
-50.4629974365234

> <r_i_glide_ecoul>
-15.6810855865479

> <r_i_glide_erotb>
1.03784064853198

> <r_i_glide_esite>
-0.111259666429508

> <r_i_glide_emodel>
-99.9060284935764

> <r_i_glide_energy>
-66.1440830230713

> <r_i_glide_einternal>
4.29347372055054

> <i_i_glide_confnum>
242

> <i_i_glide_posenum>
391

> <r_i_glide_eff_state_penalty>
0

> <s_user_duplicate_titles>
CHEMBL1952_lig180,CHEMBL1952_lig180

> <i_f3d_flags>
0

> <s_m_subgroup_title>
dock_pv

> <s_m_subgroupid>
dock_pv

> <b_m_subgroup_collapsed>
1

$$$$
CHEMBL1952_lig128
                    3D
 Schrodinger Suite 2021-1.
 31 33  0  0  1  0            999 V2000
   14.8125   16.9213   31.7578 C   0  0  0  0  0  0
   14.4147   16.4793   30.4671 C   0  0  0  0  0  0
   13.4314   16.9875   29.7259 N   0  0  0  0  0  0
   15.9421   16.1022   32.1431 C   0  0  0  0  0  0
   14.0559   17.9969   32.2849 C   0  0  0  0  0  0
   13.0384   18.5271   31.5581 N   0  0  0  0  0  0
   12.7960   18.0147   30.3307 C   0  0  0  0  0  0
   15.2386   15.4448   30.1071 N   0  0  0  0  0  0
   16.1719   15.2222   31.0888 C   0  0  0  0  0  0
   16.9334   16.2290   33.5909 S   0  0  0  0  0  0
   16.1844   13.0270   35.9389 C   0  0  0  0  0  0
   16.8131   13.9379   35.0881 C   0  0  0  0  0  0
   14.3933   18.4743   33.5216 O   0  0  0  0  0  0
   16.1316   15.0826   34.6679 C   0  0  0  0  0  0
   14.8867   13.2754   36.3921 C   0  0  0  0  0  0
   11.7922   18.6063   29.5906 N   0  0  0  0  0  0
   14.2170   14.4314   35.9902 C   0  0  0  0  0  0
   16.8291   11.8992   36.3143 F   0  0  0  0  0  0
   14.8396   15.3380   35.1325 C   0  0  0  0  0  0
   14.2742   12.3983   37.2203 F   0  0  0  0  0  0
   17.2194   14.1542   30.8896 C   0  0  0  0  0  0
   15.2143   14.9178   29.2474 H   0  0  0  0  0  0
   17.8169   13.7419   34.7395 H   0  0  0  0  0  0
   13.8164   19.2045   33.7752 H   0  0  0  0  0  0
   11.6024   18.2501   28.6711 H   0  0  0  0  0  0
   11.1420   19.2497   30.0313 H   0  0  0  0  0  0
   13.2149   14.6238   36.3429 H   0  0  0  0  0  0
   14.3161   16.2312   34.8277 H   0  0  0  0  0  0
   18.2168   14.5849   30.7908 H   0  0  0  0  0  0
   17.2585   13.4659   31.7343 H   0  0  0  0  0  0
   17.0360   13.5542   29.9944 H   0  0  0  0  0  0
  1  2  1  0  0  0
  1  4  1  0  0  0
  1  5  2  0  0  0
  2  3  2  0  0  0
  2  8  1  0  0  0
  3  7  1  0  0  0
  4  9  2  0  0  0
  4 10  1  0  0  0
  5  6  1  0  0  0
  5 13  1  0  0  0
  6  7  2  0  0  0
  7 16  1  0  0  0
  8  9  1  0  0  0
  8 22  1  0  0  0
  9 21  1  0  0  0
 10 14  1  0  0  0
 11 12  1  0  0  0
 11 18  1  0  0  0
 11 15  2  0  0  0
 12 14  2  0  0  0
 12 23  1  0  0  0
 13 24  1  0  0  0
 14 19  1  0  0  0
 15 17  1  0  0  0
 15 20  1  0  0  0
 16 25  1  0  0  0
 16 26  1  0  0  0
 17 19  2  0  0  0
 17 27  1  0  0  0
 19 28  1  0  0  0
 21 29  1  0  0  0
 21 30  1  0  0  0
 21 31  1  0  0  0
M  END
> <s_m_entry_id>
41020

> <s_m_entry_name>
dock_pv.137

> <s_m_Source_Path>
/home/csk/Desktop/cluster/DUD-E-result/tysy

> <s_m_Source_File>
dock_pv.maegz

> <i_m_Source_File_Index>
137

> <chembl_id>
CHEMBL371913

> <chembl_pref_name>
None

> <i_lp_mmshare_version>
53161

> <r_lp_tautomer_probability>
1

> <s_lp_Force_Field>
OPLS_2005

> <r_lp_Energy>
1.679678

> <b_lp_Chiralities_Consistent>
1

> <s_lp_Variant>
CHEMBL1952_lig128-1

> <s_i_glide_gridfile>
glide-grid_1syn

> <i_i_glide_lignum>
305

> <i_i_glide_rotatable_bonds>
3

> <r_i_docking_score>
-8.30522813718769

> <r_i_glide_ligand_efficiency>
-0.395487054151795

> <r_i_glide_ligand_efficiency_sa>
-1.09111879403782

> <r_i_glide_ligand_efficiency_ln>
-2.05345087462601

> <r_i_glide_gscore>
-8.30522813718769

> <r_i_glide_lipo>
-3.26327186550389

> <r_i_glide_hbond>
-0.345456410491227

> <r_i_glide_metal>
0

> <r_i_glide_rewards>
-2.28249484419033

> <r_i_glide_evdw>
-37.6384086608887

> <r_i_glide_ecoul>
-5.71435070037842

> <r_i_glide_erotb>
0.389246412163499

> <r_i_glide_esite>
-0.0641783910645512

> <r_i_glide_emodel>
-65.9004242724949

> <r_i_glide_energy>
-43.3527593612671

> <r_i_glide_einternal>
1.8803539276123

> <i_i_glide_confnum>
5

> <i_i_glide_posenum>
35

> <r_i_glide_eff_state_penalty>
0

> <s_user_duplicate_titles>
CHEMBL1952_lig128,325770

> <i_f3d_flags>
0

> <s_m_subgroup_title>
dock_pv

> <s_m_subgroupid>
dock_pv

> <b_m_subgroup_collapsed>
1

$$$$
CHEMBL1952_lig368
                    3D
 Schrodinger Suite 2021-1.
 44 47  0  0  1  0            999 V2000
   13.7740   16.7008   29.3093 N   0  0  0  0  0  0
   13.2237   17.5869   30.0535 C   0  0  0  0  0  0
   14.7606   16.1083   30.0916 C   0  0  0  0  0  0
   14.7852   16.6673   31.3408 C   0  0  0  0  0  0
   15.6732   16.3184   32.3766 C   0  0  0  0  0  0
   16.6202   15.2658   32.0870 C   0  0  0  0  0  0
   13.8199   17.6475   31.3899 C   0  0  0  0  0  0
   17.5926   14.7865   33.0045 N   0  0  0  0  0  0
   16.5909   14.7009   30.7860 C   0  0  0  0  0  0
   15.6785   15.1046   29.7990 C   0  0  0  0  0  0
   17.2956   14.5641   34.4316 C   0  0  0  0  0  0
   17.5733   10.4521   35.8237 N   0  0  0  0  0  0
   12.1921   18.4152   29.6913 N   0  0  0  0  0  0
   17.4197   13.1107   34.9098 C   0  0  0  0  0  0
   16.4550   11.1953   36.0253 C   0  0  0  0  0  0
   16.3458   12.5204   35.5912 C   0  0  0  0  0  0
   15.5314   17.1044   33.5587 C   0  0  0  0  0  0
   18.6205   11.0350   35.1907 C   0  0  0  0  0  0
   13.6877   18.3757   32.5725 C   0  0  0  0  0  0
   18.9259   14.4884   32.4798 C   0  0  0  0  0  0
   14.5488   18.1052   33.6458 C   0  0  0  0  0  0
   18.5900   12.3546   34.7398 C   0  0  0  0  0  0
   15.3277   10.5233   36.8007 C   0  0  0  0  0  0
   14.8584    9.1876   36.1954 C   0  0  0  0  0  0
   17.2773   13.9064   30.5290 H   0  0  0  0  0  0
   15.6967   14.6368   28.8251 H   0  0  0  0  0  0
   16.2784   14.8780   34.6559 H   0  0  0  0  0  0
   17.9624   15.1948   35.0211 H   0  0  0  0  0  0
   11.8157   18.3692   28.7572 H   0  0  0  0  0  0
   11.7417   19.0280   30.3557 H   0  0  0  0  0  0
   15.4396   13.0799   35.7729 H   0  0  0  0  0  0
   16.1918   16.9488   34.3908 H   0  0  0  0  0  0
   19.5055   10.4286   35.0536 H   0  0  0  0  0  0
   12.9504   19.1604   32.6684 H   0  0  0  0  0  0
   19.1482   15.0281   31.5599 H   0  0  0  0  0  0
   19.7025   14.7389   33.2034 H   0  0  0  0  0  0
   18.9922   13.4283   32.2455 H   0  0  0  0  0  0
   14.4551   18.6882   34.5514 H   0  0  0  0  0  0
   19.4713   12.7547   34.2681 H   0  0  0  0  0  0
   15.6754   10.3613   37.8234 H   0  0  0  0  0  0
   14.4741   11.2003   36.8747 H   0  0  0  0  0  0
   14.0629    8.7476   36.7981 H   0  0  0  0  0  0
   14.4674    9.3276   35.1867 H   0  0  0  0  0  0
   15.6721    8.4618   36.1409 H   0  0  0  0  0  0
  1  2  2  0  0  0
  1  3  1  0  0  0
  2  7  1  0  0  0
  2 13  1  0  0  0
  3  4  1  0  0  0
  3 10  2  0  0  0
  4  5  1  0  0  0
  4  7  2  0  0  0
  5 17  2  0  0  0
  5  6  1  0  0  0
  6  9  2  0  0  0
  6  8  1  0  0  0
  7 19  1  0  0  0
  8 11  1  0  0  0
  8 20  1  0  0  0
  9 10  1  0  0  0
  9 25  1  0  0  0
 10 26  1  0  0  0
 11 14  1  0  0  0
 11 27  1  0  0  0
 11 28  1  0  0  0
 12 18  1  0  0  0
 12 15  2  0  0  0
 13 29  1  0  0  0
 13 30  1  0  0  0
 14 16  2  0  0  0
 14 22  1  0  0  0
 15 16  1  0  0  0
 15 23  1  0  0  0
 16 31  1  0  0  0
 17 21  1  0  0  0
 17 32  1  0  0  0
 18 22  2  0  0  0
 18 33  1  0  0  0
 19 21  2  0  0  0
 19 34  1  0  0  0
 20 35  1  0  0  0
 20 36  1  0  0  0
 20 37  1  0  0  0
 21 38  1  0  0  0
 22 39  1  0  0  0
 23 24  1  0  0  0
 23 40  1  0  0  0
 23 41  1  0  0  0
 24 42  1  0  0  0
 24 43  1  0  0  0
 24 44  1  0  0  0
M  END
> <s_m_entry_id>
41022

> <s_m_entry_name>
dock_pv.139

> <s_m_Source_Path>
/home/csk/Desktop/cluster/DUD-E-result/tysy

> <s_m_Source_File>
dock_pv.maegz

> <i_m_Source_File_Index>
139

> <chembl_id>
CHEMBL56611

> <chembl_pref_name>
None

> <i_lp_mmshare_version>
53161

> <r_lp_tautomer_probability>
1

> <s_lp_Force_Field>
OPLS_2005

> <r_lp_Energy>
47.528928

> <b_lp_Chiralities_Consistent>
1

> <s_lp_Variant>
CHEMBL1952_lig368-1

> <s_i_glide_gridfile>
glide-grid_1syn

> <i_i_glide_lignum>
736

> <i_i_glide_rotatable_bonds>
4

> <r_i_docking_score>
-8.2958431174966

> <r_i_glide_ligand_efficiency>
-0.345660129895692

> <r_i_glide_ligand_efficiency_sa>
-0.997056346572695

> <r_i_glide_ligand_efficiency_ln>
-1.98557592945272

> <r_i_glide_gscore>
-8.2958431174966

> <r_i_glide_lipo>
-3.93205188190493

> <r_i_glide_hbond>
-0.0158551768280154

> <r_i_glide_metal>
0

> <r_i_glide_rewards>
-1.94341595548189

> <r_i_glide_evdw>
-47.2148742675781

> <r_i_glide_ecoul>
-3.79749608039856

> <r_i_glide_erotb>
0.557880407752864

> <r_i_glide_esite>
-0.0320323855959303

> <r_i_glide_emodel>
-76.6744028573111

> <r_i_glide_energy>
-51.0123703479767

> <r_i_glide_einternal>
1.93720352649689

> <i_i_glide_confnum>
7

> <i_i_glide_posenum>
39

> <r_i_glide_eff_state_penalty>
0

> <s_user_duplicate_titles>
CHEMBL1952_lig368,87650

> <i_f3d_flags>
0

> <s_m_subgroup_title>
dock_pv

> <s_m_subgroupid>
dock_pv

> <b_m_subgroup_collapsed>
1

$$$$
CHEMBL1952_lig266
                    3D
 Schrodinger Suite 2021-1.
 56 58  0  0  1  0            999 V2000
   13.1443   18.1487   31.5442 N   0  0  0  0  0  0
   13.2267   17.6376   30.3773 C   0  0  0  0  0  0
   14.1696   16.7006   29.9914 N   0  0  0  0  0  0
   14.0366   17.8138   32.5688 C   0  0  0  0  0  0
   13.9863   18.2275   33.7249 O   0  0  0  0  0  0
   15.1352   16.8375   32.1816 C   0  0  0  0  0  0
   15.1479   16.2792   30.8975 C   0  0  0  0  0  0
   16.1327   15.3657   30.5337 C   0  0  0  0  0  0
   17.1305   15.0279   31.4534 C   0  0  0  0  0  0
   17.1458   15.6125   32.7268 C   0  0  0  0  0  0
   16.1407   16.5078   33.0944 C   0  0  0  0  0  0
   18.2767   15.3238   33.7043 C   0  0  0  0  0  0
   18.2097   13.9519   34.2124 N   0  0  0  0  0  0
   17.1897   13.5404   35.1055 C   0  0  0  0  0  0
   17.0334   12.1940   35.4706 C   0  0  0  0  0  0
   15.9898   11.8300   36.3185 C   0  0  0  0  0  0
   15.1094   12.8045   36.8008 C   0  0  0  0  0  0
   15.3377   14.1314   36.4070 C   0  0  0  0  0  0
   16.3493   14.4935   35.5905 N   0  0  0  0  0  0
   14.0060   12.4282   37.7552 C   0  0  0  0  0  0
   14.0165   11.3449   38.3418 O   0  0  0  0  0  0
   13.0420   13.3500   37.9282 N   0  0  0  0  0  0
   11.8893   13.2633   38.8328 C   0  0  1  0  0  0
   10.9099   12.1523   38.3296 C   0  0  0  0  0  0
   12.2686   13.2100   40.3420 C   0  0  0  0  0  0
   13.3907   13.9506   40.5807 O   0  0  0  0  0  0
   11.6280   12.6270   41.1909 O   0  0  0  0  0  0
    9.4909   12.0965   38.9447 C   0  0  0  0  0  0
    8.8324   13.4680   39.0442 C   0  0  0  0  0  0
    8.1178   13.8278   37.9437 O   0  0  0  0  0  0
    8.9945   14.2277   39.9943 O   0  0  0  0  0  0
   12.2128   18.0561   29.3412 C   0  0  0  0  0  0
   19.1023   12.9711   33.6141 C   0  0  0  0  0  0
   14.1920   16.3541   29.0477 H   0  0  0  0  0  0
   16.1410   14.9297   29.5459 H   0  0  0  0  0  0
   17.9078   14.3317   31.1719 H   0  0  0  0  0  0
   16.1529   16.9472   34.0818 H   0  0  0  0  0  0
   18.2666   16.0283   34.5368 H   0  0  0  0  0  0
   19.2232   15.4908   33.1899 H   0  0  0  0  0  0
   17.6989   11.4256   35.1069 H   0  0  0  0  0  0
   15.8756   10.7922   36.5958 H   0  0  0  0  0  0
   14.7378   14.9590   36.7583 H   0  0  0  0  0  0
   13.0488   14.1592   37.3257 H   0  0  0  0  0  0
   11.4079   14.2277   38.6908 H   0  0  0  0  0  0
   11.3736   11.1731   38.4612 H   0  0  0  0  0  0
   10.7875   12.2579   37.2486 H   0  0  0  0  0  0
   13.7742   14.2423   39.7501 H   0  0  0  0  0  0
    9.5404   11.6784   39.9494 H   0  0  0  0  0  0
    8.8523   11.4246   38.3702 H   0  0  0  0  0  0
    7.8023   14.7361   38.0580 H   0  0  0  0  0  0
   11.6776   18.9580   29.6408 H   0  0  0  0  0  0
   12.6916   18.2702   28.3864 H   0  0  0  0  0  0
   11.4735   17.2705   29.1938 H   0  0  0  0  0  0
   18.5386   12.2228   33.0547 H   0  0  0  0  0  0
   19.8059   13.4281   32.9164 H   0  0  0  0  0  0
   19.6734   12.4546   34.3890 H   0  0  0  0  0  0
  1  2  2  0  0  0
  1  4  1  0  0  0
  2  3  1  0  0  0
  2 32  1  0  0  0
  3  7  1  0  0  0
  3 34  1  0  0  0
  4  5  2  0  0  0
  4  6  1  0  0  0
  6 11  1  0  0  0
  6  7  2  0  0  0
  7  8  1  0  0  0
  8  9  2  0  0  0
  8 35  1  0  0  0
  9 10  1  0  0  0
  9 36  1  0  0  0
 10 11  2  0  0  0
 10 12  1  0  0  0
 11 37  1  0  0  0
 12 13  1  0  0  0
 12 38  1  0  0  0
 12 39  1  0  0  0
 13 14  1  0  0  0
 13 33  1  0  0  0
 14 19  1  0  0  0
 14 15  2  0  0  0
 15 16  1  0  0  0
 15 40  1  0  0  0
 16 17  2  0  0  0
 16 41  1  0  0  0
 17 18  1  0  0  0
 17 20  1  0  0  0
 18 19  2  0  0  0
 18 42  1  0  0  0
 20 21  2  0  0  0
 20 22  1  0  0  0
 22 23  1  0  0  0
 22 43  1  0  0  0
 23 24  1  0  0  0
 23 25  1  0  0  0
 23 44  1  0  0  0
 24 28  1  0  0  0
 24 45  1  0  0  0
 24 46  1  0  0  0
 25 26  1  0  0  0
 25 27  2  0  0  0
 26 47  1  0  0  0
 28 29  1  0  0  0
 28 48  1  0  0  0
 28 49  1  0  0  0
 29 30  1  0  0  0
 29 31  2  0  0  0
 30 50  1  0  0  0
 32 51  1  0  0  0
 32 52  1  0  0  0
 32 53  1  0  0  0
 33 54  1  0  0  0
 33 55  1  0  0  0
 33 56  1  0  0  0
M  END
> <s_m_entry_id>
41023

> <s_m_entry_name>
dock_pv.140

> <s_m_Source_Path>
/home/csk/Desktop/cluster/DUD-E-result/tysy

> <s_m_Source_File>
dock_pv.maegz

> <i_m_Source_File_Index>
140

> <chembl_id>
CHEMBL290930

> <chembl_pref_name>
None

> <i_lp_mmshare_version>
53161

> <r_lp_tautomer_probability>
0.116051

> <s_lp_Force_Field>
OPLS_2005

> <r_lp_Energy>
17.211695

> <b_lp_Chiralities_Consistent>
1

> <s_lp_Variant>
CHEMBL1952_lig266-2

> <s_i_glide_gridfile>
glide-grid_1syn

> <i_i_glide_lignum>
529

> <i_i_glide_rotatable_bonds>
12

> <r_i_docking_score>
-8.29538431335425

> <r_i_glide_ligand_efficiency>
-0.251375282222856

> <r_i_glide_ligand_efficiency_sa>
-0.806294846502462

> <r_i_glide_ligand_efficiency_ln>
-1.84485052008871

> <r_i_glide_gscore>
-8.29538431335425

> <r_i_glide_lipo>
-3.34496589789939

> <r_i_glide_hbond>
-0.358222291286824

> <r_i_glide_metal>
0

> <r_i_glide_rewards>
-1.30027585374871

> <r_i_glide_evdw>
-52.8356437683105

> <r_i_glide_ecoul>
-10.4361352920532

> <r_i_glide_erotb>
0.976251941710487

> <r_i_glide_esite>
-0.0609697299062998

> <r_i_glide_emodel>
-93.3143737140171

> <r_i_glide_energy>
-63.2717790603638

> <r_i_glide_einternal>
5.56752777099609

> <i_i_glide_confnum>
120

> <i_i_glide_posenum>
333

> <r_i_glide_eff_state_penalty>
0

> <s_user_duplicate_titles>
CHEMBL1952_lig266,CHEMBL1952_lig266

> <i_f3d_flags>
0

> <s_m_subgroup_title>
dock_pv

> <s_m_subgroupid>
dock_pv

> <b_m_subgroup_collapsed>
1

$$$$
CHEMBL1952_lig341
                    3D
 Schrodinger Suite 2021-1.
 61 63  0  0  1  0            999 V2000
   13.3837   17.8448   31.3721 N   0  0  0  0  0  0
   14.4661   17.0987   31.7055 C   0  0  0  0  0  0
   13.4260   16.8431   29.1919 N   0  0  0  0  0  0
   15.0792   16.1814   30.8300 C   0  0  0  0  0  0
   14.4915   16.0985   29.5625 C   0  0  0  0  0  0
   12.9163   17.6803   30.1165 C   0  0  0  0  0  0
   15.2174   10.2422   36.9247 C   0  0  0  0  0  0
   14.8909   17.2329   33.0323 N   0  0  0  0  0  0
   13.9147   10.1636   36.5835 N   0  0  0  0  0  0
   12.9618    9.0580   36.8426 C   0  0  2  0  0  0
   13.4054    7.8036   36.0055 C   0  0  0  0  0  0
   15.9738   11.3841   36.3091 C   0  0  0  0  0  0
   16.3199   15.3865   31.2354 C   0  0  0  0  0  0
    9.9199   10.2283   34.4952 C   0  0  0  0  0  0
   15.7918    9.4262   37.6466 O   0  0  0  0  0  0
   14.2357    7.8283   35.1216 O   0  0  0  0  0  0
   11.5454    9.5323   36.3872 C   0  0  0  0  0  0
    8.9727   10.2044   35.2745 O   0  0  0  0  0  0
   14.9922   15.2345   28.5963 N   0  0  0  0  0  0
   11.7990   18.4044   29.7387 N   0  0  0  0  0  0
   15.4630   12.6879   36.3470 C   0  0  0  0  0  0
   17.2104   11.1351   35.7047 C   0  0  0  0  0  0
   16.2075   16.7271   33.4055 C   0  0  0  0  0  0
   11.3708    9.9121   34.8861 C   0  0  0  0  0  0
   12.7376    6.6746   36.3943 O   0  0  0  0  0  0
   16.5217   15.3564   32.7608 C   0  0  2  0  0  0
   17.4288   13.4808   35.1912 C   0  0  0  0  0  0
    9.8177   10.5341   33.1767 O   0  0  0  0  0  0
   16.1977   13.7353   35.7981 C   0  0  0  0  0  0
   17.9324   12.1806   35.1392 C   0  0  0  0  0  0
   18.2416   14.6183   34.5952 C   0  0  0  0  0  0
   17.9489   14.8549   33.1011 C   0  0  0  0  0  0
   12.8926    8.7329   38.3642 C   0  0  0  0  0  0
   14.5446   18.0215   33.5609 H   0  0  0  0  0  0
   13.6354   10.7900   35.8463 H   0  0  0  0  0  0
   17.1917   15.8279   30.7555 H   0  0  0  0  0  0
   16.2654   14.3636   30.8567 H   0  0  0  0  0  0
   11.2641   10.3983   36.9891 H   0  0  0  0  0  0
   10.8142    8.7623   36.6482 H   0  0  0  0  0  0
   15.7569   14.6162   28.8248 H   0  0  0  0  0  0
   14.5078   15.1805   27.7097 H   0  0  0  0  0  0
   11.4786   18.3425   28.7865 H   0  0  0  0  0  0
   11.3109   19.0067   30.3912 H   0  0  0  0  0  0
   14.5147   12.9027   36.8183 H   0  0  0  0  0  0
   17.6220   10.1357   35.6686 H   0  0  0  0  0  0
   16.1920   16.6270   34.4845 H   0  0  0  0  0  0
   16.9906   17.4549   33.1946 H   0  0  0  0  0  0
   11.7067    9.0995   34.2405 H   0  0  0  0  0  0
   11.9777   10.7821   34.6440 H   0  0  0  0  0  0
   12.1094    6.8257   37.0998 H   0  0  0  0  0  0
   15.8241   14.6287   33.1709 H   0  0  0  0  0  0
    8.9022   10.6963   32.9363 H   0  0  0  0  0  0
   15.8087   14.7422   35.8493 H   0  0  0  0  0  0
   18.8852   11.9786   34.6690 H   0  0  0  0  0  0
   18.1007   15.5286   35.1767 H   0  0  0  0  0  0
   19.3028   14.3860   34.7154 H   0  0  0  0  0  0
   18.6758   15.5723   32.7248 H   0  0  0  0  0  0
   18.1492   13.9281   32.5570 H   0  0  0  0  0  0
   12.0555    8.0784   38.6158 H   0  0  0  0  0  0
   13.7966    8.2430   38.7230 H   0  0  0  0  0  0
   12.7717    9.6416   38.9544 H   0  0  0  0  0  0
  1  2  2  0  0  0
  1  6  1  0  0  0
  2  4  1  0  0  0
  2  8  1  0  0  0
  3  6  2  0  0  0
  3  5  1  0  0  0
  4 13  1  0  0  0
  4  5  2  0  0  0
  5 19  1  0  0  0
  6 20  1  0  0  0
  7 12  1  0  0  0
  7  9  1  0  0  0
  7 15  2  0  0  0
  8 23  1  0  0  0
  8 34  1  0  0  0
  9 10  1  0  0  0
  9 35  1  0  0  0
 10 11  1  0  0  0
 10 17  1  0  0  0
 10 33  1  0  0  0
 11 16  2  0  0  0
 11 25  1  0  0  0
 12 22  2  0  0  0
 12 21  1  0  0  0
 13 26  1  0  0  0
 13 36  1  0  0  0
 13 37  1  0  0  0
 14 24  1  0  0  0
 14 18  2  0  0  0
 14 28  1  0  0  0
 17 24  1  0  0  0
 17 38  1  0  0  0
 17 39  1  0  0  0
 19 40  1  0  0  0
 19 41  1  0  0  0
 20 42  1  0  0  0
 20 43  1  0  0  0
 21 29  2  0  0  0
 21 44  1  0  0  0
 22 30  1  0  0  0
 22 45  1  0  0  0
 23 26  1  0  0  0
 23 46  1  0  0  0
 23 47  1  0  0  0
 24 48  1  0  0  0
 24 49  1  0  0  0
 25 50  1  0  0  0
 26 32  1  0  0  0
 26 51  1  0  0  0
 27 31  1  0  0  0
 27 29  1  0  0  0
 27 30  2  0  0  0
 28 52  1  0  0  0
 29 53  1  0  0  0
 30 54  1  0  0  0
 31 32  1  0  0  0
 31 55  1  0  0  0
 31 56  1  0  0  0
 32 57  1  0  0  0
 32 58  1  0  0  0
 33 59  1  0  0  0
 33 60  1  0  0  0
 33 61  1  0  0  0
M  END
> <s_m_entry_id>
41024

> <s_m_entry_name>
dock_pv.141

> <s_m_Source_Path>
/home/csk/Desktop/cluster/DUD-E-result/tysy

> <s_m_Source_File>
dock_pv.maegz

> <i_m_Source_File_Index>
141

> <chembl_id>
CHEMBL354249

> <chembl_pref_name>
None

> <i_lp_mmshare_version>
53161

> <r_lp_tautomer_probability>
1

> <s_lp_Force_Field>
OPLS_2005

> <r_lp_Energy>
16.685156

> <b_lp_Chiralities_Consistent>
1

> <s_lp_Variant>
CHEMBL1952_lig341-2

> <s_i_glide_gridfile>
glide-grid_1syn

> <i_i_glide_lignum>
620

> <i_i_glide_rotatable_bonds>
12

> <r_i_docking_score>
-8.28981952111193

> <r_i_glide_ligand_efficiency>
-0.251206652154907

> <r_i_glide_ligand_efficiency_sa>
-0.805753959771076

> <r_i_glide_ligand_efficiency_ln>
-1.84361293910697

> <r_i_glide_gscore>
-8.28981952111193

> <r_i_glide_lipo>
-3.46550986303849

> <r_i_glide_hbond>
-0.783117722246414

> <r_i_glide_metal>
0

> <r_i_glide_rewards>
-0.890811495152227

> <r_i_glide_evdw>
-49.3319664001465

> <r_i_glide_ecoul>
-10.5609912872314

> <r_i_glide_erotb>
0.964426047045822

> <r_i_glide_esite>
-0.064059474628588

> <r_i_glide_emodel>
-86.8453668535256

> <r_i_glide_energy>
-59.8929576873779

> <r_i_glide_einternal>
5.46006298065186

> <i_i_glide_confnum>
193

> <i_i_glide_posenum>
68

> <r_i_glide_eff_state_penalty>
0

> <s_user_duplicate_titles>
CHEMBL1952_lig341

> <i_f3d_flags>
0

> <s_m_subgroup_title>
dock_pv

> <s_m_subgroupid>
dock_pv

> <b_m_subgroup_collapsed>
1

$$$$
CHEMBL1952_lig393
                    3D
 Schrodinger Suite 2021-1.
 55 59  0  0  1  0            999 V2000
   13.8416   11.8620   37.8807 S   0  0  0  0  0  0
   13.8651   18.4900   32.5872 N   0  0  0  0  0  0
   13.0837   18.6821   31.4737 C   0  0  0  0  0  0
   17.4186   15.0541   33.0598 N   0  0  0  0  0  0
   16.4325   15.7765   32.3640 C   0  0  0  0  0  0
   14.7157   17.4456   32.3055 C   0  0  0  0  0  0
   13.3132   17.8176   30.5224 N   0  0  0  0  0  0
   15.7435   16.8197   33.0092 C   0  0  0  0  0  0
   14.3515   17.0622   30.9970 C   0  0  0  0  0  0
   16.1231   15.4280   31.0221 C   0  0  0  0  0  0
   14.9717   12.7978   36.8551 C   0  0  0  0  0  0
   15.0620   16.0473   30.3546 C   0  0  0  0  0  0
   13.2842   12.7829   38.8806 O   0  0  0  0  0  0
   14.5211   10.6270   38.2935 O   0  0  0  0  0  0
   12.5203   11.4039   36.7673 C   0  0  0  0  0  0
   17.7381   15.1109   34.4869 C   0  0  0  0  0  0
   12.1918   19.7091   31.3700 N   0  0  0  0  0  0
   16.1108   12.1886   36.3248 C   0  0  0  0  0  0
   14.7110   14.1453   36.6070 C   0  0  0  0  0  0
   16.7509   14.2936   35.3178 C   0  0  0  0  0  0
   18.2261   14.0139   32.4138 C   0  0  0  0  0  0
   15.6003   14.8881   35.8394 C   0  0  0  0  0  0
   17.0006   12.9387   35.5610 C   0  0  0  0  0  0
   16.9710   14.4093   30.2717 C   0  0  0  0  0  0
   17.4910   13.3587   31.2509 C   0  0  0  0  0  0
   12.6486   10.2505   35.9923 C   0  0  0  0  0  0
   11.3845   12.2113   36.6541 C   0  0  0  0  0  0
   11.9321   20.7205   32.3787 C   0  0  0  0  0  0
   11.6447    9.9105   35.0898 C   0  0  0  0  0  0
   10.3766   11.8615   35.7564 C   0  0  0  0  0  0
   10.5130   10.7163   34.9745 C   0  0  0  0  0  0
   13.7982   19.0775   33.4063 H   0  0  0  0  0  0
   15.9988   17.1438   34.0026 H   0  0  0  0  0  0
   14.8172   15.7723   29.3397 H   0  0  0  0  0  0
   17.7908   16.1490   34.7908 H   0  0  0  0  0  0
   18.7460   14.7410   34.6887 H   0  0  0  0  0  0
   11.4696   19.6568   30.6623 H   0  0  0  0  0  0
   16.3167   11.1453   36.5133 H   0  0  0  0  0  0
   13.8347   14.6256   37.0198 H   0  0  0  0  0  0
   18.9842   14.5917   31.8830 H   0  0  0  0  0  0
   18.7702   13.3270   33.0632 H   0  0  0  0  0  0
   15.3937   15.9338   35.6831 H   0  0  0  0  0  0
   17.8845   12.4671   35.1543 H   0  0  0  0  0  0
   17.8064   14.9397   29.8154 H   0  0  0  0  0  0
   16.4078   13.9355   29.4661 H   0  0  0  0  0  0
   18.1682   12.6438   30.7906 H   0  0  0  0  0  0
   16.6496   12.7822   31.6273 H   0  0  0  0  0  0
   13.5284    9.6280   36.0745 H   0  0  0  0  0  0
   11.2841   13.1081   37.2475 H   0  0  0  0  0  0
   11.3923   21.5538   31.9337 H   0  0  0  0  0  0
   11.3299   20.3135   33.1913 H   0  0  0  0  0  0
   12.8647   21.1063   32.7899 H   0  0  0  0  0  0
   11.7482    9.0317   34.4709 H   0  0  0  0  0  0
    9.4978   12.4828   35.6578 H   0  0  0  0  0  0
    9.7405   10.4517   34.2671 H   0  0  0  0  0  0
  1 11  1  0  0  0
  1 13  2  0  0  0
  1 14  2  0  0  0
  1 15  1  0  0  0
  2  6  1  0  0  0
  2  3  1  0  0  0
  2 32  1  0  0  0
  3 17  1  0  0  0
  3  7  2  0  0  0
  4 16  1  0  0  0
  4  5  1  0  0  0
  4 21  1  0  0  0
  5  8  2  0  0  0
  5 10  1  0  0  0
  6  8  1  0  0  0
  6  9  2  0  0  0
  7  9  1  0  0  0
  8 33  1  0  0  0
  9 12  1  0  0  0
 10 12  2  0  0  0
 10 24  1  0  0  0
 11 18  2  0  0  0
 11 19  1  0  0  0
 12 34  1  0  0  0
 15 26  1  0  0  0
 15 27  2  0  0  0
 16 20  1  0  0  0
 16 35  1  0  0  0
 16 36  1  0  0  0
 17 28  1  0  0  0
 17 37  1  0  0  0
 18 23  1  0  0  0
 18 38  1  0  0  0
 19 22  2  0  0  0
 19 39  1  0  0  0
 20 22  1  0  0  0
 20 23  2  0  0  0
 21 25  1  0  0  0
 21 40  1  0  0  0
 21 41  1  0  0  0
 22 42  1  0  0  0
 23 43  1  0  0  0
 24 25  1  0  0  0
 24 44  1  0  0  0
 24 45  1  0  0  0
 25 46  1  0  0  0
 25 47  1  0  0  0
 26 29  2  0  0  0
 26 48  1  0  0  0
 27 30  1  0  0  0
 27 49  1  0  0  0
 28 50  1  0  0  0
 28 51  1  0  0  0
 28 52  1  0  0  0
 29 31  1  0  0  0
 29 53  1  0  0  0
 30 31  2  0  0  0
 30 54  1  0  0  0
 31 55  1  0  0  0
M  END
> <s_m_entry_id>
41025

> <s_m_entry_name>
dock_pv.142

> <s_m_Source_Path>
/home/csk/Desktop/cluster/DUD-E-result/tysy

> <s_m_Source_File>
dock_pv.maegz

> <i_m_Source_File_Index>
142

> <chembl_id>
CHEMBL169726

> <chembl_pref_name>
None

> <i_lp_mmshare_version>
53161

> <r_lp_tautomer_probability>
1

> <s_lp_Force_Field>
OPLS_2005

> <r_lp_Energy>
17.620744

> <b_lp_Chiralities_Consistent>
1

> <s_lp_Variant>
CHEMBL1952_lig393-1

> <s_i_glide_gridfile>
glide-grid_1syn

> <i_i_glide_lignum>
776

> <i_i_glide_rotatable_bonds>
5

> <r_i_docking_score>
-8.28387337767414

> <r_i_glide_ligand_efficiency>
-0.267221721860456

> <r_i_glide_ligand_efficiency_sa>
-0.839445145990269

> <r_i_glide_ligand_efficiency_ln>
-1.86826731689588

> <r_i_glide_gscore>
-8.28387337767414

> <r_i_glide_lipo>
-3.98963671884206

> <r_i_glide_hbond>
-0.273108146410496

> <r_i_glide_metal>
0

> <r_i_glide_rewards>
-1.33800243450857

> <r_i_glide_evdw>
-49.9071769714355

> <r_i_glide_ecoul>
-4.08812093734741

> <r_i_glide_erotb>
0.425450911260878

> <r_i_glide_esite>
0

> <r_i_glide_emodel>
-78.184336108165

> <r_i_glide_energy>
-53.995297908783

> <r_i_glide_einternal>
3.92640829086304

> <i_i_glide_confnum>
6

> <i_i_glide_posenum>
57

> <r_i_glide_eff_state_penalty>
0

> <s_user_duplicate_titles>
CHEMBL1952_lig393,282597

> <i_f3d_flags>
0

> <s_m_subgroup_title>
dock_pv

> <s_m_subgroupid>
dock_pv

> <b_m_subgroup_collapsed>
1

$$$$
CHEMBL1952_lig429
                    3D
 Schrodinger Suite 2021-1.
 54 56  0  0  1  0            999 V2000
   19.2515   14.0124   32.9654 C   0  0  0  0  0  0
   18.1473   14.4015   33.8474 N   0  0  0  0  0  0
   17.7564   15.8134   33.8111 C   0  0  0  0  0  0
   16.3568   16.1221   33.2728 C   0  0  0  0  0  0
   15.3607   16.7092   34.0718 C   0  0  0  0  0  0
   14.2234   17.2218   33.5453 N   0  0  0  0  0  0
   14.0851   17.1487   32.2021 C   0  0  0  0  0  0
   15.0393   16.5055   31.3935 C   0  0  0  0  0  0
   16.1812   15.9863   31.9285 N   0  0  0  0  0  0
   14.8485   16.4493   29.8823 C   0  0  0  0  0  0
   15.6653   15.8418   29.1898 O   0  0  0  0  0  0
   13.7216   17.1358   29.3939 N   0  0  0  0  0  0
   12.8815   17.7346   30.1593 C   0  0  0  0  0  0
   12.9993   17.7654   31.5746 N   0  0  0  0  0  0
   11.7924   18.4044   29.5751 N   0  0  0  0  0  0
   17.5557   13.4571   34.7342 C   0  0  0  0  0  0
   17.9811   12.1188   34.7703 C   0  0  0  0  0  0
   17.3046   11.1655   35.5295 C   0  0  0  0  0  0
   16.1673   11.5288   36.2541 C   0  0  0  0  0  0
   15.8077   12.8792   36.3239 C   0  0  0  0  0  0
   16.5091   13.8273   35.5896 C   0  0  0  0  0  0
   15.3118   10.4688   36.8934 C   0  0  0  0  0  0
   15.7917    9.4621   37.4164 O   0  0  0  0  0  0
   13.9920   10.6949   36.7923 N   0  0  0  0  0  0
   12.9178    9.7753   37.1814 C   0  0  1  0  0  0
   11.6272   10.5937   37.4983 C   0  0  0  0  0  0
   11.7852   11.8857   38.3442 C   0  0  0  0  0  0
   12.2398   11.6580   39.7875 C   0  0  0  0  0  0
   11.5449   11.9098   40.7703 O   0  0  0  0  0  0
   13.5163   11.1889   39.8676 O   0  0  0  0  0  0
   12.7017    8.6892   36.0937 C   0  0  0  0  0  0
   13.4037    8.5340   35.1145 O   0  0  0  0  0  0
   11.6153    7.9264   36.3924 O   0  0  0  0  0  0
   20.0033   13.4281   33.4953 H   0  0  0  0  0  0
   18.8692   13.4207   32.1353 H   0  0  0  0  0  0
   19.7741   14.8664   32.5338 H   0  0  0  0  0  0
   17.9204   16.2277   34.7910 H   0  0  0  0  0  0
   18.4566   16.3667   33.1915 H   0  0  0  0  0  0
   15.4409   16.8334   35.1400 H   0  0  0  0  0  0
   12.3328   18.3070   32.1035 H   0  0  0  0  0  0
   11.7064   18.5009   28.5745 H   0  0  0  0  0  0
   11.1309   18.9669   30.1012 H   0  0  0  0  0  0
   18.8056   11.7780   34.1612 H   0  0  0  0  0  0
   17.6258   10.1344   35.4802 H   0  0  0  0  0  0
   14.9704   13.2091   36.9223 H   0  0  0  0  0  0
   16.1894   14.8485   35.6731 H   0  0  0  0  0  0
   13.7017   11.4930   36.2475 H   0  0  0  0  0  0
   13.2269    9.2412   38.0817 H   0  0  0  0  0  0
   10.9049    9.9450   37.9971 H   0  0  0  0  0  0
   11.1482   10.8841   36.5605 H   0  0  0  0  0  0
   10.8190   12.3895   38.3858 H   0  0  0  0  0  0
   12.4587   12.5957   37.8651 H   0  0  0  0  0  0
   13.9062   11.0438   39.0016 H   0  0  0  0  0  0
   11.4595    7.3152   35.6648 H   0  0  0  0  0  0
  1  2  1  0  0  0
  1 34  1  0  0  0
  1 35  1  0  0  0
  1 36  1  0  0  0
  2  3  1  0  0  0
  2 16  1  0  0  0
  3  4  1  0  0  0
  3 37  1  0  0  0
  3 38  1  0  0  0
  4  5  2  0  0  0
  4  9  1  0  0  0
  5  6  1  0  0  0
  5 39  1  0  0  0
  6  7  2  0  0  0
  7  8  1  0  0  0
  7 14  1  0  0  0
  8  9  2  0  0  0
  8 10  1  0  0  0
 10 11  2  0  0  0
 10 12  1  0  0  0
 12 13  2  0  0  0
 13 14  1  0  0  0
 13 15  1  0  0  0
 14 40  1  0  0  0
 15 41  1  0  0  0
 15 42  1  0  0  0
 16 17  2  0  0  0
 16 21  1  0  0  0
 17 18  1  0  0  0
 17 43  1  0  0  0
 18 19  2  0  0  0
 18 44  1  0  0  0
 19 20  1  0  0  0
 19 22  1  0  0  0
 20 21  2  0  0  0
 20 45  1  0  0  0
 21 46  1  0  0  0
 22 23  2  0  0  0
 22 24  1  0  0  0
 24 25  1  0  0  0
 24 47  1  0  0  0
 25 26  1  0  0  0
 25 31  1  0  0  0
 25 48  1  0  0  0
 26 27  1  0  0  0
 26 49  1  0  0  0
 26 50  1  0  0  0
 27 28  1  0  0  0
 27 51  1  0  0  0
 27 52  1  0  0  0
 28 29  2  0  0  0
 28 30  1  0  0  0
 30 53  1  0  0  0
 31 32  2  0  0  0
 31 33  1  0  0  0
 33 54  1  0  0  0
M  END
> <s_m_entry_id>
41026

> <s_m_entry_name>
dock_pv.143

> <s_m_Source_Path>
/home/csk/Desktop/cluster/DUD-E-result/tysy

> <s_m_Source_File>
dock_pv.maegz

> <i_m_Source_File_Index>
143

> <chembl_id>
CHEMBL158990

> <chembl_pref_name>
METHOPTERINE

> <i_lp_mmshare_version>
53161

> <r_lp_tautomer_probability>
1

> <s_lp_Force_Field>
OPLS_2005

> <r_lp_Energy>
23.723753

> <b_lp_Chiralities_Consistent>
1

> <s_lp_Variant>
CHEMBL1952_lig429-1

> <s_i_glide_gridfile>
glide-grid_1syn

> <i_i_glide_lignum>
829

> <i_i_glide_rotatable_bonds>
12

> <r_i_docking_score>
-8.28304916177207

> <r_i_glide_ligand_efficiency>
-0.251001489750669

> <r_i_glide_ligand_efficiency_sa>
-0.805095894317024

> <r_i_glide_ligand_efficiency_ln>
-1.84210724624483

> <r_i_glide_gscore>
-8.28304916177207

> <r_i_glide_lipo>
-2.73989530699075

> <r_i_glide_hbond>
-0.573914992160293

> <r_i_glide_metal>
0

> <r_i_glide_rewards>
-1.25705756354086

> <r_i_glide_evdw>
-50.6832122802734

> <r_i_glide_ecoul>
-13.8165445327759

> <r_i_glide_erotb>
0.96855761449825

> <r_i_glide_esite>
-0.0740966196483552

> <r_i_glide_emodel>
-94.9855845294289

> <r_i_glide_energy>
-64.4997568130493

> <r_i_glide_einternal>
4.97123098373413

> <i_i_glide_confnum>
85

> <i_i_glide_posenum>
8

> <r_i_glide_eff_state_penalty>
0

> <s_user_duplicate_titles>
CHEMBL1952_lig429

> <i_f3d_flags>
0

> <s_m_subgroup_title>
dock_pv

> <s_m_subgroupid>
dock_pv

> <b_m_subgroup_collapsed>
1

$$$$
CHEMBL1952_lig252
                    3D
 Schrodinger Suite 2021-1.
 50 52  0  0  1  0            999 V2000
   16.0412   11.3757   36.2606 C   0  0  0  0  0  0
   15.2926   10.2818   36.8043 C   0  0  0  0  0  0
   15.7921    9.4282   37.5400 O   0  0  0  0  0  0
   14.0221   10.2460   36.3674 N   0  0  0  0  0  0
   13.0837    9.1352   36.5772 C   0  0  1  0  0  0
   11.6641    9.5678   36.1223 C   0  0  0  0  0  0
   13.5483    7.8417   35.8595 C   0  0  0  0  0  0
   12.9904    6.7463   36.4507 O   0  0  0  0  0  0
   14.2829    7.8281   34.8918 O   0  0  0  0  0  0
   11.5396    9.9435   34.6269 C   0  0  0  0  0  0
   10.1144   10.3340   34.2484 C   0  0  0  0  0  0
    9.5302    9.4282   33.4131 O   0  0  0  0  0  0
    9.5623   11.3509   34.6603 O   0  0  0  0  0  0
   14.0957   17.7286   31.6276 N   0  0  0  0  0  0
   13.9677   17.1303   30.4053 C   0  0  0  0  0  0
   14.7171   16.1451   30.0652 N   0  0  0  0  0  0
   14.9942   17.4280   32.5944 C   0  0  0  0  0  0
   15.0514   18.0674   33.6401 O   0  0  0  0  0  0
   15.8962   16.2802   32.2072 C   0  0  0  0  0  0
   15.7075   15.6884   30.9541 C   0  0  0  0  0  0
   16.5325   14.6357   30.5616 C   0  0  0  0  0  0
   17.5452   14.1871   31.4166 C   0  0  0  0  0  0
   17.7452   14.7925   32.6637 C   0  0  0  0  0  0
   16.9173   15.8471   33.0540 C   0  0  0  0  0  0
   18.9004   14.3610   33.5647 C   0  0  0  0  0  0
   18.7062   13.0435   34.1611 N   0  0  0  0  0  0
   12.9069   17.6624   29.4699 C   0  0  0  0  0  0
   17.6906   12.6431   34.9923 C   0  0  0  0  0  0
   17.6084   11.0126   35.5873 S   0  0  0  0  0  0
   15.7013   12.6400   36.1478 N   0  0  0  0  0  0
   16.5914   13.3434   35.4776 C   0  0  0  0  0  0
   13.6992   10.9935   35.7730 H   0  0  0  0  0  0
   13.0675    8.9399   37.6515 H   0  0  0  0  0  0
   11.3435   10.4193   36.7264 H   0  0  0  0  0  0
   10.9480    8.7767   36.3527 H   0  0  0  0  0  0
   12.4166    6.9601   37.1869 H   0  0  0  0  0  0
   11.8772    9.1256   33.9912 H   0  0  0  0  0  0
   12.1842   10.7879   34.3960 H   0  0  0  0  0  0
   10.1126    8.6945   33.1907 H   0  0  0  0  0  0
   13.5004   18.5087   31.8542 H   0  0  0  0  0  0
   16.3870   14.1744   29.5965 H   0  0  0  0  0  0
   18.1913   13.3803   31.1059 H   0  0  0  0  0  0
   17.0901   16.3453   33.9910 H   0  0  0  0  0  0
   19.0820   15.0926   34.3533 H   0  0  0  0  0  0
   19.8131   14.3323   32.9667 H   0  0  0  0  0  0
   19.5140   12.4453   34.0188 H   0  0  0  0  0  0
   13.0630   17.3166   28.4476 H   0  0  0  0  0  0
   11.9141   17.3445   29.7867 H   0  0  0  0  0  0
   12.9188   18.7521   29.4445 H   0  0  0  0  0  0
   16.3932   14.3888   35.3021 H   0  0  0  0  0  0
  1  2  1  0  0  0
  1 29  1  0  0  0
  1 30  2  0  0  0
  2  3  2  0  0  0
  2  4  1  0  0  0
  4  5  1  0  0  0
  4 32  1  0  0  0
  5  6  1  0  0  0
  5  7  1  0  0  0
  5 33  1  0  0  0
  6 10  1  0  0  0
  6 34  1  0  0  0
  6 35  1  0  0  0
  7  9  2  0  0  0
  7  8  1  0  0  0
  8 36  1  0  0  0
 10 11  1  0  0  0
 10 37  1  0  0  0
 10 38  1  0  0  0
 11 12  1  0  0  0
 11 13  2  0  0  0
 12 39  1  0  0  0
 14 17  1  0  0  0
 14 15  1  0  0  0
 14 40  1  0  0  0
 15 16  2  0  0  0
 15 27  1  0  0  0
 16 20  1  0  0  0
 17 19  1  0  0  0
 17 18  2  0  0  0
 19 20  2  0  0  0
 19 24  1  0  0  0
 20 21  1  0  0  0
 21 22  2  0  0  0
 21 41  1  0  0  0
 22 23  1  0  0  0
 22 42  1  0  0  0
 23 24  2  0  0  0
 23 25  1  0  0  0
 24 43  1  0  0  0
 25 26  1  0  0  0
 25 44  1  0  0  0
 25 45  1  0  0  0
 26 28  1  0  0  0
 26 46  1  0  0  0
 27 47  1  0  0  0
 27 48  1  0  0  0
 27 49  1  0  0  0
 28 29  1  0  0  0
 28 31  2  0  0  0
 30 31  1  0  0  0
 31 50  1  0  0  0
M  END
> <s_m_entry_id>
41027

> <s_m_entry_name>
dock_pv.144

> <s_m_Source_Path>
/home/csk/Desktop/cluster/DUD-E-result/tysy

> <s_m_Source_File>
dock_pv.maegz

> <i_m_Source_File_Index>
144

> <chembl_id>
CHEMBL1097231

> <chembl_pref_name>
None

> <i_lp_mmshare_version>
53161

> <r_lp_tautomer_probability>
0.883938

> <s_lp_Force_Field>
OPLS_2005

> <r_lp_Energy>
18.132522

> <b_lp_Chiralities_Consistent>
1

> <s_lp_Variant>
CHEMBL1952_lig252-1

> <s_i_glide_gridfile>
glide-grid_1syn

> <i_i_glide_lignum>
500

> <i_i_glide_rotatable_bonds>
12

> <r_i_docking_score>
-8.28002612408631

> <r_i_glide_ligand_efficiency>
-0.26709761690601

> <r_i_glide_ligand_efficiency_sa>
-0.839055285087953

> <r_i_glide_ligand_efficiency_ln>
-1.86739964330766

> <r_i_glide_gscore>
-8.28002612408631

> <r_i_glide_lipo>
-2.80813391452457

> <r_i_glide_hbond>
-0.597310165497847

> <r_i_glide_metal>
0

> <r_i_glide_rewards>
-1.15774483284342

> <r_i_glide_evdw>
-56.113883972168

> <r_i_glide_ecoul>
-12.3599100112915

> <r_i_glide_erotb>
1.00835177874769

> <r_i_glide_esite>
-0.0655082896660312

> <r_i_glide_emodel>
-101.959496069527

> <r_i_glide_energy>
-68.4737939834595

> <r_i_glide_einternal>
4.61560440063477

> <i_i_glide_confnum>
197

> <i_i_glide_posenum>
268

> <r_i_glide_eff_state_penalty>
0

> <s_user_duplicate_titles>
CHEMBL1952_lig252,CHEMBL1952_lig252

> <i_f3d_flags>
0

> <s_m_subgroup_title>
dock_pv

> <s_m_subgroupid>
dock_pv

> <b_m_subgroup_collapsed>
1

$$$$
CHEMBL1952_lig25
                    3D
 Schrodinger Suite 2021-1.
 28 30  0  0  1  0            999 V2000
   14.4075   18.1069   33.0230 C   0  0  0  0  0  0
   14.7677   17.1550   31.9948 C   0  0  0  0  0  0
   13.4480   19.0279   32.8340 N   0  0  0  0  0  0
   12.7876   19.0303   31.6764 C   0  0  0  0  0  0
   12.9747   18.1789   30.6554 N   0  0  0  0  0  0
   13.9554   17.2487   30.8184 C   0  0  0  0  0  0
   15.8111   16.1649   32.0353 C   0  0  0  0  0  0
   15.9539   15.2350   30.9447 C   0  0  0  0  0  0
   15.0470   15.3155   29.8458 C   0  0  0  0  0  0
   14.1183   16.3384   29.7737 C   0  0  0  0  0  0
   16.9931   14.2571   31.0028 C   0  0  0  0  0  0
   14.9924   18.0869   34.2499 O   0  0  0  0  0  0
   16.7530   16.0584   33.1106 C   0  0  0  0  0  0
   11.7929   19.9804   31.5718 N   0  0  0  0  0  0
   17.7615   15.1016   33.1085 C   0  0  0  0  0  0
   17.8740   14.2010   32.0679 C   0  0  0  0  0  0
   18.9095   15.0521   34.3907 Cl  0  0  0  0  0  0
   14.9940   14.2728   28.7392 C   0  0  0  0  0  0
   13.4715   16.4225   28.9139 H   0  0  0  0  0  0
   17.1436   13.5384   30.2163 H   0  0  0  0  0  0
   14.5678   18.7704   34.7778 H   0  0  0  0  0  0
   16.7570   16.7322   33.9436 H   0  0  0  0  0  0
   11.0862   19.8568   30.8500 H   0  0  0  0  0  0
   11.6455   20.5814   32.3672 H   0  0  0  0  0  0
   18.6603   13.4577   32.0742 H   0  0  0  0  0  0
   15.7329   13.4815   28.7917 H   0  0  0  0  0  0
   14.0203   13.7886   28.7914 H   0  0  0  0  0  0
   15.0734   14.7519   27.7627 H   0  0  0  0  0  0
  1  2  1  0  0  0
  1  3  2  0  0  0
  1 12  1  0  0  0
  2  6  2  0  0  0
  2  7  1  0  0  0
  3  4  1  0  0  0
  4  5  2  0  0  0
  4 14  1  0  0  0
  5  6  1  0  0  0
  6 10  1  0  0  0
  7  8  2  0  0  0
  7 13  1  0  0  0
  8  9  1  0  0  0
  8 11  1  0  0  0
  9 18  1  0  0  0
  9 10  2  0  0  0
 10 19  1  0  0  0
 11 16  2  0  0  0
 11 20  1  0  0  0
 12 21  1  0  0  0
 13 15  2  0  0  0
 13 22  1  0  0  0
 14 23  1  0  0  0
 14 24  1  0  0  0
 15 16  1  0  0  0
 15 17  1  0  0  0
 16 25  1  0  0  0
 18 26  1  0  0  0
 18 27  1  0  0  0
 18 28  1  0  0  0
M  END
> <s_m_entry_id>
41028

> <s_m_entry_name>
dock_pv.145

> <s_m_Source_Path>
/home/csk/Desktop/cluster/DUD-E-result/tysy

> <s_m_Source_File>
dock_pv.maegz

> <i_m_Source_File_Index>
145

> <chembl_id>
CHEMBL310936

> <chembl_pref_name>
None

> <i_lp_mmshare_version>
53161

> <r_lp_tautomer_probability>
1

> <s_lp_Force_Field>
OPLS_2005

> <r_lp_Energy>
15.491521

> <b_lp_Chiralities_Consistent>
1

> <s_lp_Variant>
CHEMBL1952_lig25-1

> <s_i_glide_gridfile>
glide-grid_1syn

> <i_i_glide_lignum>
29

> <i_i_glide_rotatable_bonds>
1

> <r_i_docking_score>
-8.27086832062072

> <r_i_glide_ligand_efficiency>
-0.459492684478929

> <r_i_glide_ligand_efficiency_sa>
-1.20421149738989

> <r_i_glide_ligand_efficiency_ln>
-2.12598405379476

> <r_i_glide_gscore>
-8.27086832062072

> <r_i_glide_lipo>
-3.45390279888443

> <r_i_glide_hbond>
-0.32

> <r_i_glide_metal>
0

> <r_i_glide_rewards>
-2.06604903356567

> <r_i_glide_evdw>
-37.8404006958008

> <r_i_glide_ecoul>
-3.59264302253723

> <r_i_glide_erotb>
0

> <r_i_glide_esite>
0

> <r_i_glide_emodel>
-61.0014518058394

> <r_i_glide_energy>
-41.433043718338

> <r_i_glide_einternal>
0.95128345489502

> <i_i_glide_confnum>
1

> <i_i_glide_posenum>
129

> <r_i_glide_eff_state_penalty>
0

> <s_user_duplicate_titles>
CHEMBL1952_lig25

> <i_f3d_flags>
0

> <s_m_subgroup_title>
dock_pv

> <s_m_subgroupid>
dock_pv

> <b_m_subgroup_collapsed>
1

$$$$
CHEMBL1952_lig27
                    3D
 Schrodinger Suite 2021-1.
 28 30  0  0  1  0            999 V2000
   14.7013   17.1257   32.1963 C   0  0  0  0  0  0
   14.5107   18.0679   33.3093 C   0  0  0  0  0  0
   13.8768   17.2923   31.1157 C   0  0  0  0  0  0
   15.7657   16.0629   32.1793 C   0  0  0  0  0  0
   12.9693   18.3114   31.0097 N   0  0  0  0  0  0
   13.5934   19.0274   33.0916 N   0  0  0  0  0  0
   12.8584   19.1610   31.9658 C   0  0  0  0  0  0
   16.1095   15.4496   30.9532 C   0  0  0  0  0  0
   15.0764   18.0667   34.3915 O   0  0  0  0  0  0
   16.4105   15.6191   33.3481 C   0  0  0  0  0  0
   13.9863   16.3751   29.8993 C   0  0  0  0  0  0
   15.4435   15.9208   29.6648 C   0  0  0  0  0  0
   17.0896   14.4505   30.9275 C   0  0  0  0  0  0
   17.3932   14.6338   33.3044 C   0  0  0  0  0  0
   17.7401   14.0523   32.0915 C   0  0  0  0  0  0
   18.1654   14.1230   34.7595 Cl  0  0  0  0  0  0
   11.9131   20.3344   31.8986 C   0  0  0  0  0  0
   13.4399   19.6717   33.8643 H   0  0  0  0  0  0
   16.1629   16.0136   34.3181 H   0  0  0  0  0  0
   13.6032   16.8667   29.0043 H   0  0  0  0  0  0
   13.3424   15.5134   30.0774 H   0  0  0  0  0  0
   15.4779   15.1439   28.8983 H   0  0  0  0  0  0
   16.0205   16.7581   29.2735 H   0  0  0  0  0  0
   17.3654   13.9895   29.9923 H   0  0  0  0  0  0
   18.5087   13.2919   32.0485 H   0  0  0  0  0  0
   11.4737   20.4429   30.9055 H   0  0  0  0  0  0
   11.0989   20.2172   32.6154 H   0  0  0  0  0  0
   12.4349   21.2659   32.1259 H   0  0  0  0  0  0
  1  2  1  0  0  0
  1  4  1  0  0  0
  1  3  2  0  0  0
  2  9  2  0  0  0
  2  6  1  0  0  0
  3 11  1  0  0  0
  3  5  1  0  0  0
  4  8  2  0  0  0
  4 10  1  0  0  0
  5  7  2  0  0  0
  6  7  1  0  0  0
  6 18  1  0  0  0
  7 17  1  0  0  0
  8 12  1  0  0  0
  8 13  1  0  0  0
 10 14  2  0  0  0
 10 19  1  0  0  0
 11 12  1  0  0  0
 11 20  1  0  0  0
 11 21  1  0  0  0
 12 22  1  0  0  0
 12 23  1  0  0  0
 13 15  2  0  0  0
 13 24  1  0  0  0
 14 15  1  0  0  0
 14 16  1  0  0  0
 15 25  1  0  0  0
 17 26  1  0  0  0
 17 27  1  0  0  0
 17 28  1  0  0  0
M  END
> <s_m_entry_id>
41029

> <s_m_entry_name>
dock_pv.146

> <s_m_Source_Path>
/home/csk/Desktop/cluster/DUD-E-result/tysy

> <s_m_Source_File>
dock_pv.maegz

> <i_m_Source_File_Index>
146

> <chembl_id>
CHEMBL440496

> <chembl_pref_name>
None

> <i_lp_mmshare_version>
53161

> <r_lp_tautomer_probability>
0.839158042097895

> <s_lp_Force_Field>
OPLS_2005

> <r_lp_Energy>
20.70697

> <b_lp_Chiralities_Consistent>
1

> <s_lp_Variant>
CHEMBL1952_lig27-1

> <s_i_glide_gridfile>
glide-grid_1syn

> <i_i_glide_lignum>
33

> <i_i_glide_rotatable_bonds>
0

> <r_i_docking_score>
-8.27070359300901

> <r_i_glide_ligand_efficiency>
-0.486511976059353

> <r_i_glide_ligand_efficiency_sa>
-1.25095928649476

> <r_i_glide_ligand_efficiency_ln>
-2.15764238790245

> <r_i_glide_gscore>
-8.27070359300901

> <r_i_glide_lipo>
-3.31551866059915

> <r_i_glide_hbond>
-0.16

> <r_i_glide_metal>
0

> <r_i_glide_rewards>
-2.26956534450244

> <r_i_glide_evdw>
-37.4020881652832

> <r_i_glide_ecoul>
-4.21760034561157

> <r_i_glide_erotb>
0

> <r_i_glide_esite>
-0.0228751278015156

> <r_i_glide_emodel>
-63.2092253155575

> <r_i_glide_energy>
-41.6196885108948

> <r_i_glide_einternal>
0

> <i_i_glide_confnum>
1

> <i_i_glide_posenum>
236

> <r_i_glide_eff_state_penalty>
0

> <s_user_duplicate_titles>
CHEMBL1952_lig27,CHEMBL1952_lig27

> <i_f3d_flags>
0

> <s_m_subgroup_title>
dock_pv

> <s_m_subgroupid>
dock_pv

> <b_m_subgroup_collapsed>
1

$$$$
CHEMBL1952_lig426
                    3D
 Schrodinger Suite 2021-1.
 35 37  0  0  1  0            999 V2000
   14.3047   17.6274   32.2074 C   0  0  0  0  0  0
   15.0333   16.5480   31.5606 C   0  0  0  0  0  0
   13.2420   18.2248   31.6214 N   0  0  0  0  0  0
   12.8776   17.7982   30.4017 C   0  0  0  0  0  0
   13.4547   16.8169   29.6941 N   0  0  0  0  0  0
   16.1893   15.7925   32.0197 C   0  0  0  0  0  0
   14.5159   16.1953   30.2661 C   0  0  0  0  0  0
   13.4644   13.5854   36.6228 C   0  0  0  0  0  0
   14.8533   13.7383   36.0049 C   0  0  0  0  0  0
   16.9198   16.2280   33.5908 S   0  0  0  0  0  0
   15.1825   14.8312   35.1903 C   0  0  0  0  0  0
   16.7536   14.7759   31.2255 C   0  0  0  0  0  0
   14.6749   18.0766   33.4424 O   0  0  0  0  0  0
   15.7426   12.7433   36.2800 N   0  0  0  0  0  0
   16.4645   14.8888   34.6404 C   0  0  0  0  0  0
   15.0977   15.1628   29.5078 C   0  0  0  0  0  0
   11.7928   18.4105   29.8082 N   0  0  0  0  0  0
   16.1920   14.4703   29.9910 C   0  0  0  0  0  0
   13.5059   13.9491   37.9053 F   0  0  0  0  0  0
   13.0455   12.3196   36.5570 F   0  0  0  0  0  0
   12.5651   14.3445   35.9936 F   0  0  0  0  0  0
   16.9868   12.8281   35.7448 C   0  0  0  0  0  0
   17.3918   13.8889   34.9367 C   0  0  0  0  0  0
   17.9898   13.9894   31.6479 C   0  0  0  0  0  0
   14.4644   15.6098   34.9759 H   0  0  0  0  0  0
   14.0950   18.7973   33.7059 H   0  0  0  0  0  0
   14.6838   14.9091   28.5419 H   0  0  0  0  0  0
   11.2219   19.0654   30.3297 H   0  0  0  0  0  0
   11.5207   18.1265   28.8828 H   0  0  0  0  0  0
   16.5934   13.6713   29.3878 H   0  0  0  0  0  0
   17.6719   12.0294   35.9893 H   0  0  0  0  0  0
   18.3969   13.9255   34.5420 H   0  0  0  0  0  0
   18.5265   13.5862   30.7893 H   0  0  0  0  0  0
   18.7125   14.6176   32.1697 H   0  0  0  0  0  0
   17.7112   13.1520   32.2876 H   0  0  0  0  0  0
  1  2  1  0  0  0
  1  3  2  0  0  0
  1 13  1  0  0  0
  2  6  2  0  0  0
  2  7  1  0  0  0
  3  4  1  0  0  0
  4  5  2  0  0  0
  4 17  1  0  0  0
  5  7  1  0  0  0
  6 10  1  0  0  0
  6 12  1  0  0  0
  7 16  2  0  0  0
  8  9  1  0  0  0
  8 19  1  0  0  0
  8 20  1  0  0  0
  8 21  1  0  0  0
  9 11  1  0  0  0
  9 14  2  0  0  0
 10 15  1  0  0  0
 11 15  2  0  0  0
 11 25  1  0  0  0
 12 24  1  0  0  0
 12 18  2  0  0  0
 13 26  1  0  0  0
 14 22  1  0  0  0
 15 23  1  0  0  0
 16 18  1  0  0  0
 16 27  1  0  0  0
 17 28  1  0  0  0
 17 29  1  0  0  0
 18 30  1  0  0  0
 22 23  2  0  0  0
 22 31  1  0  0  0
 23 32  1  0  0  0
 24 33  1  0  0  0
 24 34  1  0  0  0
 24 35  1  0  0  0
M  END
> <s_m_entry_id>
41030

> <s_m_entry_name>
dock_pv.147

> <s_m_Source_Path>
/home/csk/Desktop/cluster/DUD-E-result/tysy

> <s_m_Source_File>
dock_pv.maegz

> <i_m_Source_File_Index>
147

> <chembl_id>
CHEMBL351885

> <chembl_pref_name>
None

> <i_lp_mmshare_version>
53161

> <r_lp_tautomer_probability>
1

> <s_lp_Force_Field>
OPLS_2005

> <r_lp_Energy>
15.415984

> <b_lp_Chiralities_Consistent>
1

> <s_lp_Variant>
CHEMBL1952_lig426-1

> <s_i_glide_gridfile>
glide-grid_1syn

> <i_i_glide_lignum>
825

> <i_i_glide_rotatable_bonds>
4

> <r_i_docking_score>
-8.25628815878573

> <r_i_glide_ligand_efficiency>
-0.344012006616072

> <r_i_glide_ligand_efficiency_sa>
-0.992302336394042

> <r_i_glide_ligand_efficiency_ln>
-1.97610861277442

> <r_i_glide_gscore>
-8.25628815878573

> <r_i_glide_lipo>
-3.66591710317468

> <r_i_glide_hbond>
-0.239880035735737

> <r_i_glide_metal>
0

> <r_i_glide_rewards>
-1.73272758412166

> <r_i_glide_evdw>
-41.2523422241211

> <r_i_glide_ecoul>
-5.31122255325317

> <r_i_glide_erotb>
0.307453579712476

> <r_i_glide_esite>
-0.0659165212720967

> <r_i_glide_emodel>
-68.6894777811774

> <r_i_glide_energy>
-46.5635647773743

> <r_i_glide_einternal>
4.52953720092773

> <i_i_glide_confnum>
5

> <i_i_glide_posenum>
353

> <r_i_glide_eff_state_penalty>
0

> <s_user_duplicate_titles>
CHEMBL1952_lig426,272765

> <i_f3d_flags>
0

> <s_m_subgroup_title>
dock_pv

> <s_m_subgroupid>
dock_pv

> <b_m_subgroup_collapsed>
1

$$$$
CHEMBL1952_lig295
                    3D
 Schrodinger Suite 2021-1.
 43 46  0  0  1  0            999 V2000
   14.2175   16.6673   29.6641 N   0  0  0  0  0  0
   13.7925   17.5442   30.6268 C   0  0  0  0  0  0
   14.4568   17.2291   31.8437 C   0  0  0  0  0  0
   15.3530   16.1549   31.5787 C   0  0  0  0  0  0
   16.3230   15.4280   32.3208 C   0  0  0  0  0  0
   16.9921   14.3816   31.6873 C   0  0  0  0  0  0
   16.6889   14.0131   30.3909 C   0  0  0  0  0  0
   15.7809   14.7127   29.6072 C   0  0  0  0  0  0
   15.1322   15.7912   30.2089 C   0  0  0  0  0  0
   12.6606   19.2364   31.5715 C   0  0  0  0  0  0
   12.8943   18.5196   30.4468 N   0  0  0  0  0  0
   14.0662   18.0274   32.9387 C   0  0  0  0  0  0
   13.1816   19.0293   32.7914 N   0  0  0  0  0  0
   11.7921   20.3057   31.4916 N   0  0  0  0  0  0
   14.5125   17.8554   34.2361 N   0  0  0  0  0  0
   16.7612   15.8274   33.9910 S   0  0  0  0  0  0
   16.8579   14.2628   34.8296 C   0  0  0  0  0  0
   18.0318   13.5195   34.7085 C   0  0  0  0  0  0
   18.1295   12.2393   35.2427 C   0  0  0  0  0  0
   17.0455   11.7202   35.9633 C   0  0  0  0  0  0
   15.7811   13.7692   35.5900 C   0  0  0  0  0  0
   15.8984   12.4864   36.1553 C   0  0  0  0  0  0
   14.6402   14.5463   35.7014 O   0  0  0  0  0  0
   13.5015   14.0130   36.3730 C   0  0  0  0  0  0
   19.3219   11.5854   35.0378 O   0  0  0  0  0  0
   19.4193   10.2006   35.3239 C   0  0  0  0  0  0
   13.8996   16.6716   28.7065 H   0  0  0  0  0  0
   17.7490   13.8080   32.1950 H   0  0  0  0  0  0
   17.1921   13.1512   29.9911 H   0  0  0  0  0  0
   15.5878   14.4197   28.5852 H   0  0  0  0  0  0
   11.5922   20.7570   32.3701 H   0  0  0  0  0  0
   11.0778   20.2385   30.7719 H   0  0  0  0  0  0
   15.1614   17.1080   34.4463 H   0  0  0  0  0  0
   14.1548   18.4892   34.9350 H   0  0  0  0  0  0
   18.8706   13.9172   34.1549 H   0  0  0  0  0  0
   17.0955   10.7384   36.4069 H   0  0  0  0  0  0
   15.1036   12.0558   36.7426 H   0  0  0  0  0  0
   12.6378   14.6526   36.2097 H   0  0  0  0  0  0
   13.2244   13.0269   35.9983 H   0  0  0  0  0  0
   13.6769   13.9493   37.4475 H   0  0  0  0  0  0
   20.3961    9.8492   34.9929 H   0  0  0  0  0  0
   18.6640    9.6229   34.7900 H   0  0  0  0  0  0
   19.3388    9.9998   36.3909 H   0  0  0  0  0  0
  1  2  1  0  0  0
  1  9  1  0  0  0
  1 27  1  0  0  0
  2  3  1  0  0  0
  2 11  2  0  0  0
  3  4  1  0  0  0
  3 12  2  0  0  0
  4  5  1  0  0  0
  4  9  2  0  0  0
  5  6  2  0  0  0
  5 16  1  0  0  0
  6  7  1  0  0  0
  6 28  1  0  0  0
  7  8  2  0  0  0
  7 29  1  0  0  0
  8  9  1  0  0  0
  8 30  1  0  0  0
 10 11  1  0  0  0
 10 13  2  0  0  0
 10 14  1  0  0  0
 12 13  1  0  0  0
 12 15  1  0  0  0
 14 31  1  0  0  0
 14 32  1  0  0  0
 15 33  1  0  0  0
 15 34  1  0  0  0
 16 17  1  0  0  0
 17 21  1  0  0  0
 17 18  2  0  0  0
 18 19  1  0  0  0
 18 35  1  0  0  0
 19 20  2  0  0  0
 19 25  1  0  0  0
 20 22  1  0  0  0
 20 36  1  0  0  0
 21 22  2  0  0  0
 21 23  1  0  0  0
 22 37  1  0  0  0
 23 24  1  0  0  0
 24 38  1  0  0  0
 24 39  1  0  0  0
 24 40  1  0  0  0
 25 26  1  0  0  0
 26 41  1  0  0  0
 26 42  1  0  0  0
 26 43  1  0  0  0
M  END
> <s_m_entry_id>
41032

> <s_m_entry_name>
dock_pv.149

> <s_m_Source_Path>
/home/csk/Desktop/cluster/DUD-E-result/tysy

> <s_m_Source_File>
dock_pv.maegz

> <i_m_Source_File_Index>
149

> <chembl_id>
CHEMBL4069070

> <chembl_pref_name>
None

> <i_lp_mmshare_version>
53161

> <r_lp_tautomer_probability>
1

> <s_lp_Force_Field>
OPLS_2005

> <r_lp_Energy>
17.194228

> <b_lp_Chiralities_Consistent>
1

> <s_lp_Variant>
CHEMBL1952_lig295-1

> <s_i_glide_gridfile>
glide-grid_1syn

> <i_i_glide_lignum>
565

> <i_i_glide_rotatable_bonds>
4

> <r_i_docking_score>
-8.24910202405642

> <r_i_glide_ligand_efficiency>
-0.317273154771401

> <r_i_glide_ligand_efficiency_sa>
-0.939920472600694

> <r_i_glide_ligand_efficiency_ln>
-1.93727454283818

> <r_i_glide_gscore>
-8.24910202405642

> <r_i_glide_lipo>
-3.80009901003606

> <r_i_glide_hbond>
-0.318425537029186

> <r_i_glide_metal>
0

> <r_i_glide_rewards>
-1.68955055696432

> <r_i_glide_evdw>
-48.1991386413574

> <r_i_glide_ecoul>
-2.10918498039246

> <r_i_glide_erotb>
0.285307759099892

> <r_i_glide_esite>
0

> <r_i_glide_emodel>
-71.2055843940339

> <r_i_glide_energy>
-50.3083236217499

> <r_i_glide_einternal>
6.06014060974121

> <i_i_glide_confnum>
3

> <i_i_glide_posenum>
3

> <r_i_glide_eff_state_penalty>
0

> <s_user_duplicate_titles>
CHEMBL1952_lig295

> <i_f3d_flags>
0

> <s_m_subgroup_title>
dock_pv

> <s_m_subgroupid>
dock_pv

> <b_m_subgroup_collapsed>
1

$$$$
CHEMBL1952_lig217
                    3D
 Schrodinger Suite 2021-1.
 61 63  0  0  1  0            999 V2000
   12.5203   18.1718   30.6684 N   0  0  0  0  0  0
   12.6995   19.1088   31.6502 C   0  0  0  0  0  0
   13.6077   18.9672   32.5342 N   0  0  0  0  0  0
   13.2499   17.0406   30.4759 C   0  0  0  0  0  0
   12.9670   16.2372   29.5915 O   0  0  0  0  0  0
   14.3876   16.9096   31.4685 C   0  0  0  0  0  0
   14.4947   17.8940   32.4536 C   0  0  0  0  0  0
   15.5210   17.8487   33.3829 C   0  0  0  0  0  0
   16.4756   16.8419   33.2971 C   0  0  0  0  0  0
   16.3658   15.8216   32.3443 C   0  0  0  0  0  0
   15.3090   15.8538   31.4204 C   0  0  0  0  0  0
   17.4097   14.7018   32.2696 C   0  0  0  0  0  0
   18.1949   14.5024   33.5060 N   0  0  0  0  0  0
   17.5486   13.6477   34.4359 C   0  0  0  0  0  0
   16.4737   14.1254   35.1912 C   0  0  0  0  0  0
   15.7865   13.2987   36.0728 C   0  0  0  0  0  0
   16.1543   11.9532   36.2436 C   0  0  0  0  0  0
   17.2683   11.4867   35.5195 C   0  0  0  0  0  0
   17.9456   12.3203   34.6300 C   0  0  0  0  0  0
   15.3893   11.0433   37.1907 C   0  0  0  0  0  0
   15.7902    9.9066   37.4586 O   0  0  0  0  0  0
   14.2812   11.5646   37.7603 N   0  0  0  0  0  0
   13.4133   10.8857   38.7340 C   0  0  1  0  0  0
   12.5494   11.9216   39.5117 C   0  0  0  0  0  0
   12.5430    9.7864   38.0807 C   0  0  0  0  0  0
   12.0060    8.9886   39.0452 O   0  0  0  0  0  0
   12.3702    9.6532   36.8872 O   0  0  0  0  0  0
   13.3551   13.0280   40.2359 C   0  0  0  0  0  0
   12.5419   13.8225   41.2621 C   0  0  0  0  0  0
   11.3303   14.2265   40.7930 O   0  0  0  0  0  0
   12.9379   14.0858   42.3938 O   0  0  0  0  0  0
   11.7900   20.3092   31.7238 C   0  0  0  0  0  0
   17.7173   10.2197   35.6445 F   0  0  0  0  0  0
   19.6402   14.3263   33.2650 C   0  0  0  0  0  0
   20.5485   14.3580   34.5139 C   0  0  0  0  0  0
   21.8546   13.8280   34.3910 O   0  0  0  0  0  0
   11.7564   18.2960   30.0219 H   0  0  0  0  0  0
   15.5967   18.6241   34.1300 H   0  0  0  0  0  0
   17.3035   16.8475   33.9905 H   0  0  0  0  0  0
   15.2217   15.0831   30.6654 H   0  0  0  0  0  0
   18.0667   14.9199   31.4253 H   0  0  0  0  0  0
   16.9022   13.7705   32.0076 H   0  0  0  0  0  0
   16.1467   15.1474   35.1098 H   0  0  0  0  0  0
   14.9654   13.7408   36.6158 H   0  0  0  0  0  0
   18.7750   11.9124   34.0686 H   0  0  0  0  0  0
   13.9682   12.4724   37.4562 H   0  0  0  0  0  0
   14.0671   10.3833   39.4492 H   0  0  0  0  0  0
   11.9306   11.4029   40.2477 H   0  0  0  0  0  0
   11.8520   12.4014   38.8212 H   0  0  0  0  0  0
   11.4856    8.2958   38.6343 H   0  0  0  0  0  0
   13.7865   13.7238   39.5152 H   0  0  0  0  0  0
   14.1912   12.5766   40.7686 H   0  0  0  0  0  0
   10.8749   14.7847   41.4264 H   0  0  0  0  0  0
   10.9128   20.0787   32.3291 H   0  0  0  0  0  0
   12.2908   21.1580   32.1951 H   0  0  0  0  0  0
   11.4611   20.6318   30.7351 H   0  0  0  0  0  0
   19.8389   13.4271   32.6992 H   0  0  0  0  0  0
   20.0341   15.0374   32.5464 H   0  0  0  0  0  0
   20.4235   15.2477   35.1328 H   0  0  0  0  0  0
   20.0546   13.6825   35.1910 H   0  0  0  0  0  0
   21.7924   12.9668   33.9219 H   0  0  0  0  0  0
  1  2  1  0  0  0
  1  4  1  0  0  0
  1 37  1  0  0  0
  2 32  1  0  0  0
  2  3  2  0  0  0
  3  7  1  0  0  0
  4  6  1  0  0  0
  4  5  2  0  0  0
  6 11  1  0  0  0
  6  7  2  0  0  0
  7  8  1  0  0  0
  8  9  2  0  0  0
  8 38  1  0  0  0
  9 10  1  0  0  0
  9 39  1  0  0  0
 10 11  2  0  0  0
 10 12  1  0  0  0
 11 40  1  0  0  0
 12 13  1  0  0  0
 12 41  1  0  0  0
 12 42  1  0  0  0
 13 14  1  0  0  0
 13 34  1  0  0  0
 14 19  1  0  0  0
 14 15  2  0  0  0
 15 16  1  0  0  0
 15 43  1  0  0  0
 16 17  2  0  0  0
 16 44  1  0  0  0
 17 18  1  0  0  0
 17 20  1  0  0  0
 18 19  2  0  0  0
 18 33  1  0  0  0
 19 45  1  0  0  0
 20 21  2  0  0  0
 20 22  1  0  0  0
 22 23  1  0  0  0
 22 46  1  0  0  0
 23 24  1  0  0  0
 23 25  1  0  0  0
 23 47  1  0  0  0
 24 28  1  0  0  0
 24 48  1  0  0  0
 24 49  1  0  0  0
 25 26  1  0  0  0
 25 27  2  0  0  0
 26 50  1  0  0  0
 28 29  1  0  0  0
 28 51  1  0  0  0
 28 52  1  0  0  0
 29 30  1  0  0  0
 29 31  2  0  0  0
 30 53  1  0  0  0
 32 54  1  0  0  0
 32 55  1  0  0  0
 32 56  1  0  0  0
 34 35  1  0  0  0
 34 57  1  0  0  0
 34 58  1  0  0  0
 35 36  1  0  0  0
 35 59  1  0  0  0
 35 60  1  0  0  0
 36 61  1  0  0  0
M  END
> <s_m_entry_id>
41033

> <s_m_entry_name>
dock_pv.150

> <s_m_Source_Path>
/home/csk/Desktop/cluster/DUD-E-result/tysy

> <s_m_Source_File>
dock_pv.maegz

> <i_m_Source_File_Index>
150

> <chembl_id>
CHEMBL105425

> <chembl_pref_name>
None

> <i_lp_mmshare_version>
53161

> <r_lp_tautomer_probability>
0.883938

> <s_lp_Force_Field>
OPLS_2005

> <r_lp_Energy>
27.740181

> <b_lp_Chiralities_Consistent>
1

> <s_lp_Variant>
CHEMBL1952_lig217-1

> <s_i_glide_gridfile>
glide-grid_1syn

> <i_i_glide_lignum>
430

> <i_i_glide_rotatable_bonds>
15

> <r_i_docking_score>
-8.24319873703558

> <r_i_glide_ligand_efficiency>
-0.228977742695433

> <r_i_glide_ligand_efficiency_sa>
-0.756067847093304

> <r_i_glide_ligand_efficiency_ln>
-1.79844325892808

> <r_i_glide_gscore>
-8.24319873703558

> <r_i_glide_lipo>
-3.55515107997691

> <r_i_glide_hbond>
-0.597187744965119

> <r_i_glide_metal>
0

> <r_i_glide_rewards>
-0.0444327683026504

> <r_i_glide_evdw>
-53.784107208252

> <r_i_glide_ecoul>
-15.3412103652954

> <r_i_glide_erotb>
0.978290729900133

> <r_i_glide_esite>
-0.034330958484122

> <r_i_glide_emodel>
-95.5411211684898

> <r_i_glide_energy>
-69.1253175735474

> <r_i_glide_einternal>
13.0888061523438

> <i_i_glide_confnum>
74

> <i_i_glide_posenum>
170

> <r_i_glide_eff_state_penalty>
0

> <s_user_duplicate_titles>
CHEMBL1952_lig217,CHEMBL1952_lig217,171645

> <i_f3d_flags>
0

> <s_m_subgroup_title>
dock_pv

> <s_m_subgroupid>
dock_pv

> <b_m_subgroup_collapsed>
1

$$$$
CHEMBL1952_lig177
                    3D
 Schrodinger Suite 2021-1.
 50 52  0  0  1  0            999 V2000
   13.9020   17.5090   31.0339 N   0  0  0  0  0  0
   13.9051   18.0454   32.2813 C   0  0  0  0  0  0
   14.7319   17.7251   33.3120 N   0  0  0  0  0  0
   14.8188   16.5449   30.7708 C   0  0  0  0  0  0
   15.7313   16.1198   31.7509 C   0  0  0  0  0  0
   15.6076   16.7703   32.9951 C   0  0  0  0  0  0
   16.5213   16.3059   33.8832 O   0  0  0  0  0  0
   17.2441   15.3626   33.2138 C   0  0  0  0  0  0
   16.8159   15.1904   31.8943 C   0  0  0  0  0  0
   17.3611   14.2471   30.8452 C   0  0  0  0  0  0
   18.5200   14.5945   34.1480 S   0  0  0  0  0  0
   17.5947   13.3321   34.9770 C   0  0  0  0  0  0
   18.1013   12.0322   34.9953 C   0  0  0  0  0  0
   17.3630   11.0111   35.5915 C   0  0  0  0  0  0
   16.1101   11.2828   36.1571 C   0  0  0  0  0  0
   15.6248   12.5992   36.1630 C   0  0  0  0  0  0
   16.3730   13.6217   35.5911 C   0  0  0  0  0  0
   15.2908   10.1671   36.7470 C   0  0  0  0  0  0
   14.0074   10.1307   36.3492 N   0  0  0  0  0  0
   15.7919    9.3382   37.5094 O   0  0  0  0  0  0
   13.0267    9.0828   36.6681 C   0  0  1  0  0  0
   11.6227    9.5494   36.2095 C   0  0  0  0  0  0
   11.4893    9.8822   34.7033 C   0  0  0  0  0  0
   10.0691   10.2967   34.3228 C   0  0  0  0  0  0
    9.6901    9.8316   33.0970 O   0  0  0  0  0  0
    9.3531   10.9975   35.0357 O   0  0  0  0  0  0
   14.8350   16.0146   29.4872 N   0  0  0  0  0  0
   12.9613   19.0290   32.5285 N   0  0  0  0  0  0
   13.3993    7.6964   36.0879 C   0  0  0  0  0  0
   12.6967    6.7155   36.7208 O   0  0  0  0  0  0
   14.1948    7.5159   35.1910 O   0  0  0  0  0  0
   16.5933   13.5672   30.4738 H   0  0  0  0  0  0
   17.7559   14.7976   29.9923 H   0  0  0  0  0  0
   18.1754   13.6289   31.2303 H   0  0  0  0  0  0
   19.0535   11.8132   34.5285 H   0  0  0  0  0  0
   17.7630   10.0065   35.5865 H   0  0  0  0  0  0
   14.6734   12.8412   36.6152 H   0  0  0  0  0  0
   15.9877   14.6307   35.6124 H   0  0  0  0  0  0
   13.6886   10.8495   35.7175 H   0  0  0  0  0  0
   13.0207    8.9782   37.7563 H   0  0  0  0  0  0
   11.3405   10.4302   36.7929 H   0  0  0  0  0  0
   10.8796    8.7950   36.4765 H   0  0  0  0  0  0
   11.7937    9.0281   34.1011 H   0  0  0  0  0  0
   12.1568   10.6969   34.4256 H   0  0  0  0  0  0
   10.3426    9.2837   32.6518 H   0  0  0  0  0  0
   15.4507   15.2428   29.2834 H   0  0  0  0  0  0
   14.1951   16.3847   28.7997 H   0  0  0  0  0  0
   12.4111   19.3583   31.7506 H   0  0  0  0  0  0
   12.9936   19.5522   33.4002 H   0  0  0  0  0  0
   12.9073    5.8532   36.3553 H   0  0  0  0  0  0
  1  2  1  0  0  0
  1  4  2  0  0  0
  2 28  1  0  0  0
  2  3  2  0  0  0
  3  6  1  0  0  0
  4  5  1  0  0  0
  4 27  1  0  0  0
  5  9  1  0  0  0
  5  6  2  0  0  0
  6  7  1  0  0  0
  7  8  1  0  0  0
  8  9  2  0  0  0
  8 11  1  0  0  0
  9 10  1  0  0  0
 10 32  1  0  0  0
 10 33  1  0  0  0
 10 34  1  0  0  0
 11 12  1  0  0  0
 12 17  1  0  0  0
 12 13  2  0  0  0
 13 14  1  0  0  0
 13 35  1  0  0  0
 14 15  2  0  0  0
 14 36  1  0  0  0
 15 16  1  0  0  0
 15 18  1  0  0  0
 16 17  2  0  0  0
 16 37  1  0  0  0
 17 38  1  0  0  0
 18 19  1  0  0  0
 18 20  2  0  0  0
 19 21  1  0  0  0
 19 39  1  0  0  0
 21 22  1  0  0  0
 21 29  1  0  0  0
 21 40  1  0  0  0
 22 23  1  0  0  0
 22 41  1  0  0  0
 22 42  1  0  0  0
 23 24  1  0  0  0
 23 43  1  0  0  0
 23 44  1  0  0  0
 24 25  1  0  0  0
 24 26  2  0  0  0
 25 45  1  0  0  0
 27 46  1  0  0  0
 27 47  1  0  0  0
 28 48  1  0  0  0
 28 49  1  0  0  0
 29 30  1  0  0  0
 29 31  2  0  0  0
 30 50  1  0  0  0
M  END
> <s_m_entry_id>
41034

> <s_m_entry_name>
dock_pv.151

> <s_m_Source_Path>
/home/csk/Desktop/cluster/DUD-E-result/tysy

> <s_m_Source_File>
dock_pv.maegz

> <i_m_Source_File_Index>
151

> <chembl_id>
CHEMBL596672

> <chembl_pref_name>
None

> <i_lp_mmshare_version>
53161

> <r_lp_tautomer_probability>
1

> <s_lp_Force_Field>
OPLS_2005

> <r_lp_Energy>
10.18773

> <b_lp_Chiralities_Consistent>
1

> <s_lp_Variant>
CHEMBL1952_lig177-1

> <s_i_glide_gridfile>
glide-grid_1syn

> <i_i_glide_lignum>
354

> <i_i_glide_rotatable_bonds>
11

> <r_i_docking_score>
-8.24110916856001

> <r_i_glide_ligand_efficiency>
-0.265842231243871

> <r_i_glide_ligand_efficiency_sa>
-0.835111640862135

> <r_i_glide_ligand_efficiency_ln>
-1.85862267717503

> <r_i_glide_gscore>
-8.24110916856001

> <r_i_glide_lipo>
-2.98708019212786

> <r_i_glide_hbond>
-0.681200998471875

> <r_i_glide_metal>
0

> <r_i_glide_rewards>
-1.01683568677386

> <r_i_glide_evdw>
-54.9068031311035

> <r_i_glide_ecoul>
-11.4544582366943

> <r_i_glide_erotb>
0.907516600872917

> <r_i_glide_esite>
0

> <r_i_glide_emodel>
-97.2224789155289

> <r_i_glide_energy>
-66.3612613677979

> <r_i_glide_einternal>
5.12724494934082

> <i_i_glide_confnum>
202

> <i_i_glide_posenum>
40

> <r_i_glide_eff_state_penalty>
0

> <s_user_duplicate_titles>
CHEMBL1952_lig177

> <i_f3d_flags>
0

> <s_m_subgroup_title>
dock_pv

> <s_m_subgroupid>
dock_pv

> <b_m_subgroup_collapsed>
1

$$$$
CHEMBL1952_lig462
                    3D
 Schrodinger Suite 2021-1.
 41 45  0  0  1  0            999 V2000
   18.3967   15.4281   35.0014 O   0  0  0  0  0  0
   18.7263   14.2605   34.1870 S   0  0  0  0  0  0
   20.1387   13.9293   34.0009 O   0  0  0  0  0  0
   15.4956   15.9902   30.3557 C   0  0  0  0  0  0
   13.7904   17.7442   30.8093 C   0  0  0  0  0  0
   14.1916   16.9659   28.5557 C   0  0  0  0  0  0
   13.4238   18.5382   33.0817 O   0  0  0  0  0  0
   16.1836   16.0254   33.0774 C   0  0  0  0  0  0
   16.5306   15.1598   30.8511 C   0  0  0  0  0  0
   12.1970   19.4450   31.4876 O   0  0  0  0  0  0
   15.1359   16.8439   32.6431 C   0  0  0  0  0  0
   14.5920   17.7893   34.7914 O   0  0  0  0  0  0
   14.3900   17.7296   33.5864 C   0  0  0  0  0  0
   16.9032   15.2058   32.1965 C   0  0  0  0  0  0
   13.5143   17.7929   29.4434 C   0  0  0  0  0  0
   13.0736   18.6320   31.7771 C   0  0  0  0  0  0
   14.8086   16.8425   31.2604 C   0  0  0  0  0  0
   15.1454   16.0490   28.9921 C   0  0  0  0  0  0
   18.0417   14.4641   32.5603 N   0  0  0  0  0  0
   17.9107   12.8149   34.8852 C   0  0  0  0  0  0
   16.7591   10.4487   35.9059 C   0  0  0  0  0  0
   18.0172   10.4270   35.3119 C   0  0  0  0  0  0
   18.5901   11.5944   34.8273 C   0  0  0  0  0  0
   16.0559   11.6682   36.0372 C   0  0  0  0  0  0
   16.6340   12.8751   35.5286 C   0  0  0  0  0  0
   15.9796   14.0656   35.6487 N   0  0  0  0  0  0
   14.7765   14.1040   36.2630 C   0  0  0  0  0  0
   14.1464   12.9757   36.7772 C   0  0  0  0  0  0
   14.7844   11.7427   36.6647 C   0  0  0  0  0  0
   13.9470   17.0293   27.5062 H   0  0  0  0  0  0
   16.4380   16.0676   34.1189 H   0  0  0  0  0  0
   17.0689   14.5274   30.1572 H   0  0  0  0  0  0
   12.7674   18.4737   29.0573 H   0  0  0  0  0  0
   15.6517   15.4114   28.2822 H   0  0  0  0  0  0
   18.5406   13.9763   31.8300 H   0  0  0  0  0  0
   16.3165    9.5371   36.2786 H   0  0  0  0  0  0
   18.5641    9.4984   35.2173 H   0  0  0  0  0  0
   19.5750   11.5375   34.3866 H   0  0  0  0  0  0
   14.3163   15.0798   36.3346 H   0  0  0  0  0  0
   13.1812   13.0579   37.2519 H   0  0  0  0  0  0
   14.3202   10.8467   37.0517 H   0  0  0  0  0  0
  1  2  2  0  0  0
  2  3  2  0  0  0
  2 19  1  0  0  0
  2 20  1  0  0  0
  4  9  1  0  0  0
  4 18  2  0  0  0
  4 17  1  0  0  0
  5 17  2  0  0  0
  5 15  1  0  0  0
  5 16  1  0  0  0
  6 15  2  0  0  0
  6 18  1  0  0  0
  6 30  1  0  0  0
  7 16  1  0  0  0
  7 13  1  0  0  0
  8 11  2  0  0  0
  8 14  1  0  0  0
  8 31  1  0  0  0
  9 14  2  0  0  0
  9 32  1  0  0  0
 10 16  2  0  0  0
 11 13  1  0  0  0
 11 17  1  0  0  0
 12 13  2  0  0  0
 14 19  1  0  0  0
 15 33  1  0  0  0
 18 34  1  0  0  0
 19 35  1  0  0  0
 20 25  2  0  0  0
 20 23  1  0  0  0
 21 24  2  0  0  0
 21 22  1  0  0  0
 21 36  1  0  0  0
 22 23  2  0  0  0
 22 37  1  0  0  0
 23 38  1  0  0  0
 24 25  1  0  0  0
 24 29  1  0  0  0
 25 26  1  0  0  0
 26 27  2  0  0  0
 27 28  1  0  0  0
 27 39  1  0  0  0
 28 29  2  0  0  0
 28 40  1  0  0  0
 29 41  1  0  0  0
M  END
> <s_m_entry_id>
41035

> <s_m_entry_name>
dock_pv.152

> <s_m_Source_Path>
/home/csk/Desktop/cluster/DUD-E-result/tysy

> <s_m_Source_File>
dock_pv.maegz

> <i_m_Source_File_Index>
152

> <chembl_id>
CHEMBL2323396

> <chembl_pref_name>
None

> <i_lp_mmshare_version>
53161

> <r_lp_tautomer_probability>
1

> <s_lp_Force_Field>
OPLS_2005

> <r_lp_Energy>
40.660261

> <b_lp_Chiralities_Consistent>
1

> <s_lp_Variant>
CHEMBL1952_lig462-1

> <s_i_glide_gridfile>
glide-grid_1syn

> <i_i_glide_lignum>
892

> <i_i_glide_rotatable_bonds>
3

> <r_i_docking_score>
-8.24108443765387

> <r_i_glide_ligand_efficiency>
-0.28417532543634

> <r_i_glide_ligand_efficiency_sa>
-0.87307663280285

> <r_i_glide_ligand_efficiency_ln>
-1.88699936035233

> <r_i_glide_gscore>
-8.24108443765387

> <r_i_glide_lipo>
-4.19483308383987

> <r_i_glide_hbond>
0

> <r_i_glide_metal>
0

> <r_i_glide_rewards>
-1.59067658432344

> <r_i_glide_evdw>
-55.325855255127

> <r_i_glide_ecoul>
0.344649702310562

> <r_i_glide_erotb>
0.360336386240746

> <r_i_glide_esite>
-0.101315848321533

> <r_i_glide_emodel>
-81.5359951804737

> <r_i_glide_energy>
-54.9812055528164

> <r_i_glide_einternal>
3.26999282836914

> <i_i_glide_confnum>
18

> <i_i_glide_posenum>
282

> <r_i_glide_eff_state_penalty>
0

> <s_user_duplicate_titles>
CHEMBL1952_lig462

> <i_f3d_flags>
0

> <s_m_subgroup_title>
dock_pv

> <s_m_subgroupid>
dock_pv

> <b_m_subgroup_collapsed>
1

$$$$
CHEMBL1952_lig222
                    3D
 Schrodinger Suite 2021-1.
 54 56  0  0  1  0            999 V2000
   13.9840   17.5948   31.7078 N   0  0  0  0  0  0
   13.8339   16.9055   30.5366 C   0  0  0  0  0  0
   14.6349   15.9545   30.2161 N   0  0  0  0  0  0
   14.9518   17.4250   32.6382 C   0  0  0  0  0  0
   15.0172   18.1352   33.6359 O   0  0  0  0  0  0
   15.9097   16.3165   32.2755 C   0  0  0  0  0  0
   15.7074   15.6374   31.0699 C   0  0  0  0  0  0
   16.5918   14.6274   30.6929 C   0  0  0  0  0  0
   17.6910   14.3228   31.5043 C   0  0  0  0  0  0
   17.9109   15.0275   32.6955 C   0  0  0  0  0  0
   17.0033   16.0187   33.0881 C   0  0  0  0  0  0
   19.1851   14.8063   33.5153 C   0  0  0  0  0  0
   19.3712   13.4378   33.9911 N   0  0  0  0  0  0
   18.3960   12.7107   34.6915 C   0  0  0  0  0  0
   18.5221   11.3197   34.6753 C   0  0  0  0  0  0
   17.5727   10.5137   35.3009 C   0  0  0  0  0  0
   16.4818   11.0860   35.9648 C   0  0  0  0  0  0
   16.3897   12.4835   36.0288 C   0  0  0  0  0  0
   17.3457   13.2911   35.4238 C   0  0  0  0  0  0
   15.4381   10.2179   36.6107 C   0  0  0  0  0  0
   15.7479    9.1726   37.1834 O   0  0  0  0  0  0
   14.1810   10.6822   36.5114 N   0  0  0  0  0  0
   12.9840   10.0710   37.0905 C   0  0  1  0  0  0
   12.3347   11.0836   38.0785 C   0  0  0  0  0  0
   12.0226    9.6112   35.9694 C   0  0  0  0  0  0
   12.6036    8.6354   35.2107 O   0  0  0  0  0  0
   10.8973   10.0353   35.8206 O   0  0  0  0  0  0
   13.2335   11.4731   39.2743 C   0  0  0  0  0  0
   12.6097   12.5528   40.1605 C   0  0  0  0  0  0
   12.8410   13.8128   39.6915 O   0  0  0  0  0  0
   11.9813   12.3127   41.1912 O   0  0  0  0  0  0
   12.6810   17.2765   29.6334 C   0  0  0  0  0  0
   17.2391   14.6281   35.5995 F   0  0  0  0  0  0
   13.3482   18.3453   31.9223 H   0  0  0  0  0  0
   16.4327   14.0910   29.7687 H   0  0  0  0  0  0
   18.3892   13.5571   31.1950 H   0  0  0  0  0  0
   17.1826   16.5823   33.9920 H   0  0  0  0  0  0
   19.2397   15.5022   34.3537 H   0  0  0  0  0  0
   20.0306   15.0319   32.8660 H   0  0  0  0  0  0
   20.1411   12.9088   33.5865 H   0  0  0  0  0  0
   19.3413   10.8583   34.1396 H   0  0  0  0  0  0
   17.6791    9.4426   35.2270 H   0  0  0  0  0  0
   15.5944   12.9652   36.5776 H   0  0  0  0  0  0
   14.0198   11.4965   35.9393 H   0  0  0  0  0  0
   13.2515    9.1737   37.6507 H   0  0  0  0  0  0
   11.4086   10.6618   38.4741 H   0  0  0  0  0  0
   12.0406   11.9859   37.5380 H   0  0  0  0  0  0
   11.9636    8.2636   34.5877 H   0  0  0  0  0  0
   14.2091   11.8201   38.9377 H   0  0  0  0  0  0
   13.4226   10.5900   39.8839 H   0  0  0  0  0  0
   13.3370   13.8303   38.8695 H   0  0  0  0  0  0
   11.8690   16.5560   29.7296 H   0  0  0  0  0  0
   12.2783   18.2639   29.8699 H   0  0  0  0  0  0
   12.9969   17.2965   28.5880 H   0  0  0  0  0  0
  1  2  1  0  0  0
  1  4  1  0  0  0
  1 34  1  0  0  0
  2 32  1  0  0  0
  2  3  2  0  0  0
  3  7  1  0  0  0
  4  6  1  0  0  0
  4  5  2  0  0  0
  6 11  1  0  0  0
  6  7  2  0  0  0
  7  8  1  0  0  0
  8  9  2  0  0  0
  8 35  1  0  0  0
  9 10  1  0  0  0
  9 36  1  0  0  0
 10 11  2  0  0  0
 10 12  1  0  0  0
 11 37  1  0  0  0
 12 13  1  0  0  0
 12 38  1  0  0  0
 12 39  1  0  0  0
 13 14  1  0  0  0
 13 40  1  0  0  0
 14 19  1  0  0  0
 14 15  2  0  0  0
 15 16  1  0  0  0
 15 41  1  0  0  0
 16 17  2  0  0  0
 16 42  1  0  0  0
 17 18  1  0  0  0
 17 20  1  0  0  0
 18 19  2  0  0  0
 18 43  1  0  0  0
 19 33  1  0  0  0
 20 21  2  0  0  0
 20 22  1  0  0  0
 22 23  1  0  0  0
 22 44  1  0  0  0
 23 24  1  0  0  0
 23 25  1  0  0  0
 23 45  1  0  0  0
 24 28  1  0  0  0
 24 46  1  0  0  0
 24 47  1  0  0  0
 25 26  1  0  0  0
 25 27  2  0  0  0
 26 48  1  0  0  0
 28 29  1  0  0  0
 28 49  1  0  0  0
 28 50  1  0  0  0
 29 30  1  0  0  0
 29 31  2  0  0  0
 30 51  1  0  0  0
 32 52  1  0  0  0
 32 53  1  0  0  0
 32 54  1  0  0  0
M  END
> <s_m_entry_id>
41036

> <s_m_entry_name>
dock_pv.153

> <s_m_Source_Path>
/home/csk/Desktop/cluster/DUD-E-result/tysy

> <s_m_Source_File>
dock_pv.maegz

> <i_m_Source_File_Index>
153

> <chembl_id>
CHEMBL104267

> <chembl_pref_name>
None

> <i_lp_mmshare_version>
53161

> <r_lp_tautomer_probability>
0.883938

> <s_lp_Force_Field>
OPLS_2005

> <r_lp_Energy>
21.058544

> <b_lp_Chiralities_Consistent>
1

> <s_lp_Variant>
CHEMBL1952_lig222-1

> <s_i_glide_gridfile>
glide-grid_1syn

> <i_i_glide_lignum>
440

> <i_i_glide_rotatable_bonds>
12

> <r_i_docking_score>
-8.24047174119988

> <r_i_glide_ligand_efficiency>
-0.249711264884845

> <r_i_glide_ligand_efficiency_sa>
-0.800957453771303

> <r_i_glide_ligand_efficiency_ln>
-1.83263824836366

> <r_i_glide_gscore>
-8.24047174119988

> <r_i_glide_lipo>
-2.7762212196854

> <r_i_glide_hbond>
-0.397498924224401

> <r_i_glide_metal>
0

> <r_i_glide_rewards>
-1.26350478165973

> <r_i_glide_evdw>
-53.2574996948242

> <r_i_glide_ecoul>
-13.2138824462891

> <r_i_glide_erotb>
0.96469983182607

> <r_i_glide_esite>
-0.122989295771842

> <r_i_glide_emodel>
-96.5847046033536

> <r_i_glide_energy>
-66.4713821411133

> <r_i_glide_einternal>
9.80500793457031

> <i_i_glide_confnum>
178

> <i_i_glide_posenum>
288

> <r_i_glide_eff_state_penalty>
0

> <s_user_duplicate_titles>
CHEMBL1952_lig222,CHEMBL1952_lig222

> <i_f3d_flags>
0

> <s_m_subgroup_title>
dock_pv

> <s_m_subgroupid>
dock_pv

> <b_m_subgroup_collapsed>
1

$$$$
CHEMBL1952_lig66
                    3D
 Schrodinger Suite 2021-1.
 27 29  0  0  1  0            999 V2000
   14.1653   17.7732   32.1277 C   0  0  0  0  0  0
   13.1336   18.3703   31.4900 N   0  0  0  0  0  0
   14.9349   16.7002   31.5172 C   0  0  0  0  0  0
   12.8510   17.9636   30.2433 C   0  0  0  0  0  0
   13.4840   16.9964   29.5570 N   0  0  0  0  0  0
   14.5069   16.3625   30.1893 C   0  0  0  0  0  0
   16.0458   15.9728   32.0763 C   0  0  0  0  0  0
   16.6767   14.9422   31.2982 C   0  0  0  0  0  0
   16.5874   16.2049   33.3819 C   0  0  0  0  0  0
   14.4703   18.2246   33.3798 O   0  0  0  0  0  0
   15.1361   15.3344   29.4662 C   0  0  0  0  0  0
   17.7882   14.2273   31.8201 C   0  0  0  0  0  0
   16.1929   14.6322   30.0125 C   0  0  0  0  0  0
   11.8059   18.5953   29.5932 N   0  0  0  0  0  0
   18.2832   14.5110   33.0845 C   0  0  0  0  0  0
   17.6762   15.4823   33.8604 C   0  0  0  0  0  0
   19.3915   13.8281   33.5788 N   0  0  0  0  0  0
   16.1855   16.9430   34.0471 H   0  0  0  0  0  0
   13.8629   18.9351   33.6223 H   0  0  0  0  0  0
   14.7858   15.0858   28.4745 H   0  0  0  0  0  0
   18.2510   13.4555   31.2205 H   0  0  0  0  0  0
   16.6490   13.8313   29.4480 H   0  0  0  0  0  0
   11.6011   18.3487   28.6398 H   0  0  0  0  0  0
   11.1795   19.2155   30.0992 H   0  0  0  0  0  0
   18.0605   15.6917   34.8478 H   0  0  0  0  0  0
   19.8659   13.1382   32.9951 H   0  0  0  0  0  0
   19.7967   14.0966   34.4606 H   0  0  0  0  0  0
  1  2  2  0  0  0
  1  3  1  0  0  0
  1 10  1  0  0  0
  2  4  1  0  0  0
  3  6  2  0  0  0
  3  7  1  0  0  0
  4 14  1  0  0  0
  4  5  2  0  0  0
  5  6  1  0  0  0
  6 11  1  0  0  0
  7  8  2  0  0  0
  7  9  1  0  0  0
  8 12  1  0  0  0
  8 13  1  0  0  0
  9 16  2  0  0  0
  9 18  1  0  0  0
 10 19  1  0  0  0
 11 13  2  0  0  0
 11 20  1  0  0  0
 12 15  2  0  0  0
 12 21  1  0  0  0
 13 22  1  0  0  0
 14 23  1  0  0  0
 14 24  1  0  0  0
 15 16  1  0  0  0
 15 17  1  0  0  0
 16 25  1  0  0  0
 17 26  1  0  0  0
 17 27  1  0  0  0
M  END
> <s_m_entry_id>
41037

> <s_m_entry_name>
dock_pv.154

> <s_m_Source_Path>
/home/csk/Desktop/cluster/DUD-E-result/tysy

> <s_m_Source_File>
dock_pv.maegz

> <i_m_Source_File_Index>
154

> <chembl_id>
CHEMBL74485

> <chembl_pref_name>
None

> <i_lp_mmshare_version>
53161

> <r_lp_tautomer_probability>
1

> <s_lp_Force_Field>
OPLS_2005

> <r_lp_Energy>
12.959735

> <b_lp_Chiralities_Consistent>
1

> <s_lp_Variant>
CHEMBL1952_lig66-1

> <s_i_glide_gridfile>
glide-grid_1syn

> <i_i_glide_lignum>
100

> <i_i_glide_rotatable_bonds>
1

> <r_i_docking_score>
-8.23127990764713

> <r_i_glide_ligand_efficiency>
-0.484192935743949

> <r_i_glide_ligand_efficiency_sa>
-1.2449963808294

> <r_i_glide_ligand_efficiency_ln>
-2.14735762631385

> <r_i_glide_gscore>
-8.23127990764713

> <r_i_glide_lipo>
-2.76159680856465

> <r_i_glide_hbond>
-0.398589043216795

> <r_i_glide_metal>
0

> <r_i_glide_rewards>
-2.31374309539801

> <r_i_glide_evdw>
-33.6455421447754

> <r_i_glide_ecoul>
-6.12479305267334

> <r_i_glide_erotb>
0

> <r_i_glide_esite>
-0.156354895327908

> <r_i_glide_emodel>
-60.7377374540799

> <r_i_glide_energy>
-39.7703351974487

> <r_i_glide_einternal>
0.908404529094696

> <i_i_glide_confnum>
1

> <i_i_glide_posenum>
230

> <r_i_glide_eff_state_penalty>
0

> <s_user_duplicate_titles>
CHEMBL1952_lig66

> <i_f3d_flags>
0

> <s_m_subgroup_title>
dock_pv

> <s_m_subgroupid>
dock_pv

> <b_m_subgroup_collapsed>
1

$$$$
CHEMBL1952_lig33
                    3D
 Schrodinger Suite 2021-1.
 31 33  0  0  1  0            999 V2000
   13.8149   18.1409   32.2240 C   0  0  0  0  0  0
   14.6426   17.0768   31.6818 C   0  0  0  0  0  0
   12.9886   18.8711   31.4407 N   0  0  0  0  0  0
   13.0072   18.6274   30.1194 C   0  0  0  0  0  0
   13.7682   17.7215   29.4829 N   0  0  0  0  0  0
   14.5809   16.9556   30.2548 C   0  0  0  0  0  0
   15.5024   16.1753   32.4027 C   0  0  0  0  0  0
   16.3658   15.2795   31.6793 C   0  0  0  0  0  0
   17.2574   14.4189   32.3978 C   0  0  0  0  0  0
   16.2842   15.2396   30.2672 C   0  0  0  0  0  0
   15.5118   16.0684   33.8297 C   0  0  0  0  0  0
   13.9121   18.4780   33.5449 O   0  0  0  0  0  0
   15.3921   16.0346   29.5763 C   0  0  0  0  0  0
   17.2575   14.4095   33.7852 C   0  0  0  0  0  0
   16.3577   15.1831   34.4934 C   0  0  0  0  0  0
   12.1916   19.4061   29.3215 N   0  0  0  0  0  0
   18.1554   13.4288   31.6764 C   0  0  0  0  0  0
   16.2615   15.0002   35.9926 C   0  0  0  0  0  0
   16.9095   14.5633   29.7036 H   0  0  0  0  0  0
   14.8247   16.6196   34.4434 H   0  0  0  0  0  0
   13.3930   19.2634   33.7582 H   0  0  0  0  0  0
   15.3317   15.9617   28.4995 H   0  0  0  0  0  0
   17.9112   13.7326   34.3177 H   0  0  0  0  0  0
   11.3834   19.8285   29.7700 H   0  0  0  0  0  0
   12.0991   19.1139   28.3625 H   0  0  0  0  0  0
   17.5901   12.8275   30.9652 H   0  0  0  0  0  0
   18.5920   12.7291   32.3909 H   0  0  0  0  0  0
   18.9546   13.9376   31.1405 H   0  0  0  0  0  0
   15.3457   15.4359   36.3911 H   0  0  0  0  0  0
   16.2368   13.9378   36.2396 H   0  0  0  0  0  0
   17.1302   15.4241   36.4948 H   0  0  0  0  0  0
  1  2  1  0  0  0
  1  3  2  0  0  0
  1 12  1  0  0  0
  2  6  2  0  0  0
  2  7  1  0  0  0
  3  4  1  0  0  0
  4  5  2  0  0  0
  4 16  1  0  0  0
  5  6  1  0  0  0
  6 13  1  0  0  0
  7  8  2  0  0  0
  7 11  1  0  0  0
  8  9  1  0  0  0
  8 10  1  0  0  0
  9 17  1  0  0  0
  9 14  2  0  0  0
 10 13  2  0  0  0
 10 19  1  0  0  0
 11 15  2  0  0  0
 11 20  1  0  0  0
 12 21  1  0  0  0
 13 22  1  0  0  0
 14 15  1  0  0  0
 14 23  1  0  0  0
 15 18  1  0  0  0
 16 24  1  0  0  0
 16 25  1  0  0  0
 17 26  1  0  0  0
 17 27  1  0  0  0
 17 28  1  0  0  0
 18 29  1  0  0  0
 18 30  1  0  0  0
 18 31  1  0  0  0
M  END
> <s_m_entry_id>
41038

> <s_m_entry_name>
dock_pv.155

> <s_m_Source_Path>
/home/csk/Desktop/cluster/DUD-E-result/tysy

> <s_m_Source_File>
dock_pv.maegz

> <i_m_Source_File_Index>
155

> <chembl_id>
CHEMBL74216

> <chembl_pref_name>
None

> <i_lp_mmshare_version>
53161

> <r_lp_tautomer_probability>
1

> <s_lp_Force_Field>
OPLS_2005

> <r_lp_Energy>
15.418711

> <b_lp_Chiralities_Consistent>
1

> <s_lp_Variant>
CHEMBL1952_lig33-1

> <s_i_glide_gridfile>
glide-grid_1syn

> <i_i_glide_lignum>
42

> <i_i_glide_rotatable_bonds>
1

> <r_i_docking_score>
-8.23050767863432

> <r_i_glide_ligand_efficiency>
-0.457250426590796

> <r_i_glide_ligand_efficiency_sa>
-1.19833511933163

> <r_i_glide_ligand_efficiency_ln>
-2.11560955888833

> <r_i_glide_gscore>
-8.23050767863432

> <r_i_glide_lipo>
-2.88867216386355

> <r_i_glide_hbond>
-0.411007149958034

> <r_i_glide_metal>
0

> <r_i_glide_rewards>
-2.2961904220573

> <r_i_glide_evdw>
-33.7546310424805

> <r_i_glide_ecoul>
-5.92607975006104

> <r_i_glide_erotb>
0

> <r_i_glide_esite>
-0.0579944281222563

> <r_i_glide_emodel>
-57.08848193056

> <r_i_glide_energy>
-39.6807107925415

> <r_i_glide_einternal>
1.21495687961578

> <i_i_glide_confnum>
1

> <i_i_glide_posenum>
334

> <r_i_glide_eff_state_penalty>
0

> <s_user_duplicate_titles>
CHEMBL1952_lig33

> <i_f3d_flags>
0

> <s_m_subgroup_title>
dock_pv

> <s_m_subgroupid>
dock_pv

> <b_m_subgroup_collapsed>
1

$$$$
CHEMBL1952_lig113
                    3D
 Schrodinger Suite 2021-1.
 57 59  0  0  1  0            999 V2000
   14.0480   16.8554   30.2611 N   0  0  0  0  0  0
   13.1646   18.4628   31.8300 N   0  0  0  0  0  0
   14.9423   16.4434   31.2007 C   0  0  0  0  0  0
   14.0567   18.0624   32.7599 C   0  0  0  0  0  0
   14.9915   17.0286   32.4974 C   0  0  0  0  0  0
   13.2061   17.8424   30.6346 C   0  0  0  0  0  0
   13.2703   12.2795   37.9671 C   0  0  0  0  0  0
   15.7919   15.4456   30.8292 N   0  0  0  0  0  0
   12.4146   13.2295   38.3879 N   0  0  0  0  0  0
   10.0113   13.6329   39.1271 C   0  0  0  0  0  0
   17.6641   13.6410   34.4732 N   0  0  0  0  0  0
   18.9920   11.5401   34.8324 C   0  0  0  0  0  0
   15.9583   16.5459   33.4114 C   0  0  0  0  0  0
   11.3995   13.0190   39.4392 C   0  0  2  0  0  0
   19.3166   10.6280   35.5773 C   0  0  0  0  0  0
   16.8172   15.5160   33.0331 C   0  0  0  0  0  0
   14.3439   12.6867   36.9873 C   0  0  0  0  0  0
   17.8916   15.0182   33.9992 C   0  0  0  0  0  0
   13.7067   13.0980   42.6698 C   0  0  0  0  0  0
   14.1171   18.6280   34.0014 O   0  0  0  0  0  0
   16.5337   13.3292   35.2933 C   0  0  0  0  0  0
   13.2244   11.1190   38.3828 O   0  0  0  0  0  0
    9.2196   13.9482   39.9898 O   0  0  0  0  0  0
   12.2756   18.2545   29.7014 N   0  0  0  0  0  0
   16.7021   15.0059   31.7372 C   0  0  0  0  0  0
   13.3907   14.1136   43.2858 O   0  0  0  0  0  0
   14.7737   14.0141   36.8424 C   0  0  0  0  0  0
   14.9893   11.6957   36.2484 C   0  0  0  0  0  0
   16.0519   12.0161   35.4169 C   0  0  0  0  0  0
   15.8518   14.3230   36.0107 C   0  0  0  0  0  0
   11.9656   13.4870   40.8147 C   0  0  0  0  0  0
   13.2827   12.7931   41.2363 C   0  0  0  0  0  0
   18.5798   12.6216   33.9130 C   0  0  0  0  0  0
    9.8143   13.8272   37.7925 O   0  0  0  0  0  0
   14.4580   12.0909   43.1910 O   0  0  0  0  0  0
   12.3979   14.1215   37.9213 H   0  0  0  0  0  0
   16.0180   16.9877   34.3908 H   0  0  0  0  0  0
   11.1877   11.9505   39.5173 H   0  0  0  0  0  0
   19.5938    9.8281   36.2243 H   0  0  0  0  0  0
   18.8444   15.0870   33.4694 H   0  0  0  0  0  0
   18.0082   15.6934   34.8480 H   0  0  0  0  0  0
   13.4837   19.3502   34.1224 H   0  0  0  0  0  0
   12.2955   17.8397   28.7859 H   0  0  0  0  0  0
   11.5864   18.9463   29.9674 H   0  0  0  0  0  0
   17.3575   14.2134   31.4025 H   0  0  0  0  0  0
   14.3240   14.8156   37.4090 H   0  0  0  0  0  0
   14.6796   10.6618   36.3154 H   0  0  0  0  0  0
   16.4714   11.2057   34.8457 H   0  0  0  0  0  0
   16.1741   15.3496   35.9777 H   0  0  0  0  0  0
   12.1351   14.5648   40.7872 H   0  0  0  0  0  0
   11.2185   13.3255   41.5907 H   0  0  0  0  0  0
   13.1676   11.7121   41.1327 H   0  0  0  0  0  0
   14.1029   13.0826   40.5801 H   0  0  0  0  0  0
   18.1367   12.1664   33.0313 H   0  0  0  0  0  0
   19.5139   13.0771   33.5803 H   0  0  0  0  0  0
    8.9766   14.2732   37.6468 H   0  0  0  0  0  0
   14.6953   12.2246   44.1210 H   0  0  0  0  0  0
  1  3  2  0  0  0
  1  6  1  0  0  0
  2  6  2  0  0  0
  2  4  1  0  0  0
  3  5  1  0  0  0
  3  8  1  0  0  0
  4 20  1  0  0  0
  4  5  2  0  0  0
  5 13  1  0  0  0
  6 24  1  0  0  0
  7 17  1  0  0  0
  7  9  1  0  0  0
  7 22  2  0  0  0
  8 25  2  0  0  0
  9 14  1  0  0  0
  9 36  1  0  0  0
 10 14  1  0  0  0
 10 23  2  0  0  0
 10 34  1  0  0  0
 11 18  1  0  0  0
 11 21  1  0  0  0
 11 33  1  0  0  0
 12 33  1  0  0  0
 12 15  3  0  0  0
 13 16  2  0  0  0
 13 37  1  0  0  0
 14 31  1  0  0  0
 14 38  1  0  0  0
 15 39  1  0  0  0
 16 25  1  0  0  0
 16 18  1  0  0  0
 17 27  2  0  0  0
 17 28  1  0  0  0
 18 40  1  0  0  0
 18 41  1  0  0  0
 19 32  1  0  0  0
 19 26  2  0  0  0
 19 35  1  0  0  0
 20 42  1  0  0  0
 21 29  1  0  0  0
 21 30  2  0  0  0
 24 43  1  0  0  0
 24 44  1  0  0  0
 25 45  1  0  0  0
 27 30  1  0  0  0
 27 46  1  0  0  0
 28 29  2  0  0  0
 28 47  1  0  0  0
 29 48  1  0  0  0
 30 49  1  0  0  0
 31 32  1  0  0  0
 31 50  1  0  0  0
 31 51  1  0  0  0
 32 52  1  0  0  0
 32 53  1  0  0  0
 33 54  1  0  0  0
 33 55  1  0  0  0
 34 56  1  0  0  0
 35 57  1  0  0  0
M  END
> <s_m_entry_id>
41039

> <s_m_entry_name>
dock_pv.156

> <s_m_Source_Path>
/home/csk/Desktop/cluster/DUD-E-result/tysy

> <s_m_Source_File>
dock_pv.maegz

> <i_m_Source_File_Index>
156

> <chembl_id>
CHEMBL114987

> <chembl_pref_name>
None

> <i_lp_mmshare_version>
53161

> <r_lp_tautomer_probability>
1

> <s_lp_Force_Field>
OPLS_2005

> <r_lp_Energy>
13.672821

> <b_lp_Chiralities_Consistent>
1

> <s_lp_Variant>
CHEMBL1952_lig113-2

> <s_i_glide_gridfile>
glide-grid_1syn

> <i_i_glide_lignum>
289

> <i_i_glide_rotatable_bonds>
15

> <r_i_docking_score>
-8.22710371488478

> <r_i_glide_ligand_efficiency>
-0.235060106139565

> <r_i_glide_ligand_efficiency_sa>
-0.768897193151253

> <r_i_glide_ligand_efficiency_ln>
-1.80603185614643

> <r_i_glide_gscore>
-8.22710371488478

> <r_i_glide_lipo>
-2.90883603691879

> <r_i_glide_hbond>
-0.325307424416918

> <r_i_glide_metal>
0

> <r_i_glide_rewards>
-1.20386120514819

> <r_i_glide_evdw>
-57.1223983764648

> <r_i_glide_ecoul>
-13.2440671920776

> <r_i_glide_erotb>
1.06226459410414

> <r_i_glide_esite>
-0.008633644870126

> <r_i_glide_emodel>
-104.607385024224

> <r_i_glide_energy>
-70.3664655685425

> <r_i_glide_einternal>
7.13532638549805

> <i_i_glide_confnum>
27

> <i_i_glide_posenum>
64

> <r_i_glide_eff_state_penalty>
0

> <s_user_duplicate_titles>
CHEMBL1952_lig113,186780

> <i_f3d_flags>
0

> <s_m_subgroup_title>
dock_pv

> <s_m_subgroupid>
dock_pv

> <b_m_subgroup_collapsed>
1

$$$$
CHEMBL1952_lig349
                    3D
 Schrodinger Suite 2021-1.
 52 55  0  0  1  0            999 V2000
   15.3284   15.9989   30.5667 C   0  0  0  0  0  0
   15.1472   16.2390   32.0612 C   0  0  0  0  0  0
   14.5583   16.8157   29.7263 N   0  0  0  0  0  0
   13.6340   18.0229   31.5252 N   0  0  0  0  0  0
   14.3008   17.2662   32.4926 C   0  0  0  0  0  0
   13.7915   17.7298   30.1847 C   0  0  0  0  0  0
   14.9921    7.8009   35.9745 S   0  0  2  0  0  0
   15.1949   13.7996   36.1258 N   0  0  0  0  0  0
   13.7804   13.8280   38.2310 C   0  0  0  0  0  0
   13.3921   13.3023   39.2627 C   0  0  0  0  0  0
   15.7921   15.4280   33.0073 C   0  0  0  0  0  0
   15.0859    9.6085   35.9910 C   0  0  0  0  0  0
   15.1783   12.3893   36.0039 C   0  0  0  0  0  0
   16.1187   15.1406   30.1815 O   0  0  0  0  0  0
   16.1780   14.6279   35.3956 C   0  0  0  0  0  0
   14.0861    7.4614   34.7911 O   0  0  0  0  0  0
   13.9930    7.5582   37.4783 C   0  0  0  0  0  0
   15.5434   15.5967   34.3771 C   0  0  0  0  0  0
   14.1201   17.5066   33.8483 C   0  0  0  0  0  0
   13.8988   10.3280   35.9920 C   0  0  0  0  0  0
   16.3206   10.2571   35.9594 C   0  0  0  0  0  0
   16.3648   11.6493   35.9621 C   0  0  0  0  0  0
   13.9512   11.7116   35.9914 C   0  0  0  0  0  0
   14.1921   14.4719   36.9615 C   0  0  0  0  0  0
   14.7383   16.6740   34.7818 C   0  0  0  0  0  0
   12.9960   18.5645   29.2062 C   0  0  0  0  0  0
   14.4544    8.0463   38.7009 C   0  0  0  0  0  0
   12.7822    6.8699   37.3918 C   0  0  0  0  0  0
   12.0198    6.6783   38.5410 C   0  0  0  0  0  0
   13.6856    7.8593   39.8451 C   0  0  0  0  0  0
   12.4739    7.1750   39.7621 C   0  0  0  0  0  0
   13.0600   12.8273   40.1572 H   0  0  0  0  0  0
   16.4427   14.6278   32.6788 H   0  0  0  0  0  0
   13.0276   18.7751   31.8101 H   0  0  0  0  0  0
   16.8938   13.9993   34.8649 H   0  0  0  0  0  0
   16.7687   15.1914   36.1196 H   0  0  0  0  0  0
   13.4923   18.3218   34.1808 H   0  0  0  0  0  0
   12.9450    9.8197   35.9845 H   0  0  0  0  0  0
   17.2439    9.7009   35.9316 H   0  0  0  0  0  0
   17.3248   12.1434   35.9801 H   0  0  0  0  0  0
   13.0212   12.2589   35.9935 H   0  0  0  0  0  0
   14.5920   15.4280   37.2653 H   0  0  0  0  0  0
   13.2895   14.6405   36.3736 H   0  0  0  0  0  0
   14.5829   16.8885   35.8244 H   0  0  0  0  0  0
   13.0670   18.1773   28.1889 H   0  0  0  0  0  0
   11.9390   18.5879   29.4741 H   0  0  0  0  0  0
   13.3619   19.5895   29.1913 H   0  0  0  0  0  0
   15.3920    8.5773   38.7622 H   0  0  0  0  0  0
   12.4355    6.4867   36.4416 H   0  0  0  0  0  0
   11.0809    6.1469   38.4841 H   0  0  0  0  0  0
   14.0275    8.2467   40.7907 H   0  0  0  0  0  0
   11.8806    7.0270   40.6526 H   0  0  0  0  0  0
  1 14  2  0  0  0
  1  2  1  0  0  0
  1  3  1  0  0  0
  2 11  2  0  0  0
  2  5  1  0  0  0
  3  6  2  0  0  0
  4  5  1  0  0  0
  4 34  1  0  0  0
  4  6  1  0  0  0
  5 19  2  0  0  0
  6 26  1  0  0  0
  7 12  1  0  0  0
  7 16  2  0  0  0
  7 17  1  0  0  0
  8 15  1  0  0  0
  8 13  1  0  0  0
  8 24  1  0  0  0
  9 24  1  0  0  0
  9 10  3  0  0  0
 10 32  1  0  0  0
 11 33  1  0  0  0
 11 18  1  0  0  0
 12 20  2  0  0  0
 12 21  1  0  0  0
 13 22  1  0  0  0
 13 23  2  0  0  0
 15 35  1  0  0  0
 15 36  1  0  0  0
 15 18  1  0  0  0
 17 27  2  0  0  0
 17 28  1  0  0  0
 18 25  2  0  0  0
 19 25  1  0  0  0
 19 37  1  0  0  0
 20 23  1  0  0  0
 20 38  1  0  0  0
 21 22  2  0  0  0
 21 39  1  0  0  0
 22 40  1  0  0  0
 23 41  1  0  0  0
 24 42  1  0  0  0
 24 43  1  0  0  0
 25 44  1  0  0  0
 26 45  1  0  0  0
 26 46  1  0  0  0
 26 47  1  0  0  0
 27 30  1  0  0  0
 27 48  1  0  0  0
 28 29  2  0  0  0
 28 49  1  0  0  0
 29 31  1  0  0  0
 29 50  1  0  0  0
 30 31  2  0  0  0
 30 51  1  0  0  0
 31 52  1  0  0  0
M  END
> <s_m_entry_id>
41040

> <s_m_entry_name>
dock_pv.157

> <s_m_Source_Path>
/home/csk/Desktop/cluster/DUD-E-result/tysy

> <s_m_Source_File>
dock_pv.maegz

> <i_m_Source_File_Index>
157

> <chembl_id>
CHEMBL162754

> <chembl_pref_name>
None

> <i_lp_mmshare_version>
53161

> <r_lp_tautomer_probability>
0.116051

> <s_lp_Force_Field>
OPLS_2005

> <r_lp_Energy>
18.10253

> <b_lp_Chiralities_Consistent>
1

> <s_lp_Variant>
CHEMBL1952_lig349-3

> <s_i_glide_gridfile>
glide-grid_1syn

> <i_i_glide_lignum>
643

> <i_i_glide_rotatable_bonds>
7

> <r_i_docking_score>
-8.2021825748986

> <r_i_glide_ligand_efficiency>
-0.264586534674148

> <r_i_glide_ligand_efficiency_sa>
-0.831167019957248

> <r_i_glide_ligand_efficiency_ln>
-1.84984353734755

> <r_i_glide_gscore>
-8.2021825748986

> <r_i_glide_lipo>
-3.89112421678962

> <r_i_glide_hbond>
-0.32

> <r_i_glide_metal>
0

> <r_i_glide_rewards>
-1.36442876565857

> <r_i_glide_evdw>
-49.1255950927734

> <r_i_glide_ecoul>
-6.20532846450806

> <r_i_glide_erotb>
0.760449431864469

> <r_i_glide_esite>
0

> <r_i_glide_emodel>
-78.049227175526

> <r_i_glide_energy>
-55.3309235572815

> <r_i_glide_einternal>
7.51754236221313

> <i_i_glide_confnum>
28

> <i_i_glide_posenum>
277

> <r_i_glide_eff_state_penalty>
0

> <s_user_duplicate_titles>
CHEMBL1952_lig349,266880

> <i_f3d_flags>
0

> <s_m_subgroup_title>
dock_pv

> <s_m_subgroupid>
dock_pv

> <b_m_subgroup_collapsed>
1

$$$$
CHEMBL1952_lig82
                    3D
 Schrodinger Suite 2021-1.
 28 30  0  0  1  0            999 V2000
   15.6330   16.1331   31.7290 C   0  0  0  0  0  0
   16.1969   16.5085   33.0550 C   0  0  0  0  0  0
   16.1589   15.0342   31.1022 C   0  0  0  0  0  0
   17.1810   15.6487   33.5881 N   0  0  0  0  0  0
   17.1950   14.3303   31.6734 N   0  0  0  0  0  0
   14.5837   16.9498   31.0068 C   0  0  0  0  0  0
   17.6559   14.6684   32.9228 C   0  0  0  0  0  0
   14.4561   16.7959   29.6063 C   0  0  0  0  0  0
   15.8336   17.5509   33.5907 O   0  0  0  0  0  0
   13.6844   17.8214   31.6582 C   0  0  0  0  0  0
   15.7422   14.6136   29.6997 C   0  0  0  0  0  0
   18.6744   13.8878   33.4877 N   0  0  0  0  0  0
   15.4052   15.8569   28.8696 C   0  0  0  0  0  0
   13.4881   17.5255   28.9081 C   0  0  0  0  0  0
   12.7168   18.5345   30.9473 C   0  0  0  0  0  0
   12.6207   18.3847   29.5713 C   0  0  0  0  0  0
   11.8429   19.3701   31.5917 O   0  0  0  0  0  0
   19.2300   13.2584   32.9194 H   0  0  0  0  0  0
   13.6938   17.9496   32.7278 H   0  0  0  0  0  0
   14.9300   13.8881   29.7168 H   0  0  0  0  0  0
   16.5908   14.1601   29.1903 H   0  0  0  0  0  0
   19.1357   14.1995   34.3281 H   0  0  0  0  0  0
   17.6173   13.5547   31.1881 H   0  0  0  0  0  0
   16.3277   16.4044   28.6788 H   0  0  0  0  0  0
   14.9934   15.5547   27.9041 H   0  0  0  0  0  0
   13.4065   17.4283   27.8342 H   0  0  0  0  0  0
   11.8775   18.9335   29.0108 H   0  0  0  0  0  0
   11.1225   19.6624   31.0193 H   0  0  0  0  0  0
  1  2  1  0  0  0
  1  6  1  0  0  0
  1  3  2  0  0  0
  2  4  1  0  0  0
  2  9  2  0  0  0
  3  5  1  0  0  0
  3 11  1  0  0  0
  4  7  2  0  0  0
  5 23  1  0  0  0
  5  7  1  0  0  0
  6  8  2  0  0  0
  6 10  1  0  0  0
  7 12  1  0  0  0
  8 13  1  0  0  0
  8 14  1  0  0  0
 10 15  2  0  0  0
 10 19  1  0  0  0
 11 13  1  0  0  0
 11 20  1  0  0  0
 11 21  1  0  0  0
 12 22  1  0  0  0
 12 18  1  0  0  0
 13 24  1  0  0  0
 13 25  1  0  0  0
 14 16  2  0  0  0
 14 26  1  0  0  0
 15 16  1  0  0  0
 15 17  1  0  0  0
 16 27  1  0  0  0
 17 28  1  0  0  0
M  END
> <s_m_entry_id>
41041

> <s_m_entry_name>
dock_pv.158

> <s_m_Source_Path>
/home/csk/Desktop/cluster/DUD-E-result/tysy

> <s_m_Source_File>
dock_pv.maegz

> <i_m_Source_File_Index>
158

> <chembl_id>
CHEMBL305926

> <chembl_pref_name>
None

> <i_lp_mmshare_version>
53161

> <r_lp_tautomer_probability>
0.108277240005813

> <s_lp_Force_Field>
OPLS_2005

> <r_lp_Energy>
24.268569

> <b_lp_Chiralities_Consistent>
1

> <s_lp_Variant>
CHEMBL1952_lig82-2

> <s_i_glide_gridfile>
glide-grid_1syn

> <i_i_glide_lignum>
131

> <i_i_glide_rotatable_bonds>
1

> <r_i_docking_score>
-8.19939544465777

> <r_i_glide_ligand_efficiency>
-0.482317379097516

> <r_i_glide_ligand_efficiency_sa>
-1.24017379655675

> <r_i_glide_ligand_efficiency_ln>
-2.13903967995201

> <r_i_glide_gscore>
-8.19939544465777

> <r_i_glide_lipo>
-2.76830123971857

> <r_i_glide_hbond>
-0.32

> <r_i_glide_metal>
0

> <r_i_glide_rewards>
-2.10954140301518

> <r_i_glide_evdw>
-34.8912963867188

> <r_i_glide_ecoul>
-8.01717376708984

> <r_i_glide_erotb>
0

> <r_i_glide_esite>
-0.0544119175246035

> <r_i_glide_emodel>
-64.8114067766306

> <r_i_glide_energy>
-42.9084701538086

> <r_i_glide_einternal>
0.205779314041138

> <i_i_glide_confnum>
1

> <i_i_glide_posenum>
196

> <r_i_glide_eff_state_penalty>
0

> <s_user_duplicate_titles>
CHEMBL1952_lig82,CHEMBL1952_lig82,CHEMBL1952_lig82

> <i_f3d_flags>
0

> <s_m_subgroup_title>
dock_pv

> <s_m_subgroupid>
dock_pv

> <b_m_subgroup_collapsed>
1

$$$$
CHEMBL1952_lig38
                    3D
 Schrodinger Suite 2021-1.
 32 34  0  0  1  0            999 V2000
   14.1487   18.0511   32.9066 C   0  0  0  0  0  0
   14.5580   17.2532   31.7716 C   0  0  0  0  0  0
   13.2357   19.0282   32.7907 N   0  0  0  0  0  0
   12.6852   19.2421   31.5947 C   0  0  0  0  0  0
   12.9177   18.5393   30.4701 N   0  0  0  0  0  0
   13.8520   17.5517   30.5576 C   0  0  0  0  0  0
   15.5614   16.2284   31.7445 C   0  0  0  0  0  0
   14.6489   17.8352   34.1543 O   0  0  0  0  0  0
   15.7831   15.4863   30.5396 C   0  0  0  0  0  0
   16.3947   15.9093   32.8575 C   0  0  0  0  0  0
   14.1111   16.8195   29.3846 C   0  0  0  0  0  0
   11.7942   20.2950   31.5455 N   0  0  0  0  0  0
   15.0421   15.7934   29.3784 C   0  0  0  0  0  0
   16.7597   14.4586   30.5099 C   0  0  0  0  0  0
   17.3347   14.8881   32.8080 C   0  0  0  0  0  0
   18.3009   14.5125   34.2397 S   0  0  0  0  0  0
   17.5236   14.1709   31.6362 C   0  0  0  0  0  0
   17.1928   14.6297   35.6831 C   0  0  0  0  0  0
   16.4742   13.3192   36.0227 C   0  0  0  0  0  0
   14.2393   18.4760   34.7413 H   0  0  0  0  0  0
   16.3669   16.4841   33.7586 H   0  0  0  0  0  0
   13.5730   17.0607   28.4791 H   0  0  0  0  0  0
   11.1091   20.2743   30.7970 H   0  0  0  0  0  0
   11.5955   20.7349   32.4302 H   0  0  0  0  0  0
   15.2204   15.2344   28.4696 H   0  0  0  0  0  0
   16.9123   13.8931   29.6015 H   0  0  0  0  0  0
   18.2654   13.3839   31.5958 H   0  0  0  0  0  0
   16.4588   15.4235   35.5632 H   0  0  0  0  0  0
   17.7918   14.9458   36.5312 H   0  0  0  0  0  0
   15.8311   13.4431   36.8966 H   0  0  0  0  0  0
   17.1876   12.5258   36.2481 H   0  0  0  0  0  0
   15.8496   12.9849   35.1927 H   0  0  0  0  0  0
  1  2  1  0  0  0
  1  3  2  0  0  0
  1  8  1  0  0  0
  2  6  2  0  0  0
  2  7  1  0  0  0
  3  4  1  0  0  0
  4  5  2  0  0  0
  4 12  1  0  0  0
  5  6  1  0  0  0
  6 11  1  0  0  0
  7  9  2  0  0  0
  7 10  1  0  0  0
  8 20  1  0  0  0
  9 13  1  0  0  0
  9 14  1  0  0  0
 10 15  2  0  0  0
 10 21  1  0  0  0
 11 13  2  0  0  0
 11 22  1  0  0  0
 12 23  1  0  0  0
 12 24  1  0  0  0
 13 25  1  0  0  0
 14 17  2  0  0  0
 14 26  1  0  0  0
 15 16  1  0  0  0
 15 17  1  0  0  0
 16 18  1  0  0  0
 17 27  1  0  0  0
 18 19  1  0  0  0
 18 28  1  0  0  0
 18 29  1  0  0  0
 19 30  1  0  0  0
 19 31  1  0  0  0
 19 32  1  0  0  0
M  END
> <s_m_entry_id>
41042

> <s_m_entry_name>
dock_pv.159

> <s_m_Source_Path>
/home/csk/Desktop/cluster/DUD-E-result/tysy

> <s_m_Source_File>
dock_pv.maegz

> <i_m_Source_File_Index>
159

> <chembl_id>
CHEMBL305611

> <chembl_pref_name>
None

> <i_lp_mmshare_version>
53161

> <r_lp_tautomer_probability>
1

> <s_lp_Force_Field>
OPLS_2005

> <r_lp_Energy>
12.766273

> <b_lp_Chiralities_Consistent>
1

> <s_lp_Variant>
CHEMBL1952_lig38-1

> <s_i_glide_gridfile>
glide-grid_1syn

> <i_i_glide_lignum>
52

> <i_i_glide_rotatable_bonds>
3

> <r_i_docking_score>
-8.19273498447323

> <r_i_glide_ligand_efficiency>
-0.43119657813017

> <r_i_glide_ligand_efficiency_sa>
-1.15060565887651

> <r_i_glide_ligand_efficiency_ln>
-2.0770342823771

> <r_i_glide_gscore>
-8.19273498447323

> <r_i_glide_lipo>
-3.45228581373557

> <r_i_glide_hbond>
-0.29879620012009

> <r_i_glide_metal>
0

> <r_i_glide_rewards>
-2.23111100412097

> <r_i_glide_evdw>
-40.8674278259277

> <r_i_glide_ecoul>
-2.73550915718079

> <r_i_glide_erotb>
0.243155798376909

> <r_i_glide_esite>
0

> <r_i_glide_emodel>
-62.5355139400149

> <r_i_glide_energy>
-43.6029369831085

> <r_i_glide_einternal>
2.64531660079956

> <i_i_glide_confnum>
1

> <i_i_glide_posenum>
300

> <r_i_glide_eff_state_penalty>
0

> <s_user_duplicate_titles>
CHEMBL1952_lig38

> <i_f3d_flags>
0

> <s_m_subgroup_title>
dock_pv

> <s_m_subgroupid>
dock_pv

> <b_m_subgroup_collapsed>
1

$$$$
CHEMBL1952_lig228
                    3D
 Schrodinger Suite 2021-1.
 64 66  0  0  1  0            999 V2000
   13.5759   18.4385   32.0682 N   0  0  0  0  0  0
   13.2989   18.2421   30.8361 C   0  0  0  0  0  0
   13.9198   17.3096   30.0296 N   0  0  0  0  0  0
   14.5887   17.7312   32.7277 C   0  0  0  0  0  0
   14.9748   17.9466   33.8759 O   0  0  0  0  0  0
   15.2449   16.6262   31.9108 C   0  0  0  0  0  0
   14.8939   16.4638   30.5650 C   0  0  0  0  0  0
   15.4843   15.4711   29.7938 C   0  0  0  0  0  0
   16.3851   14.5891   30.3902 C   0  0  0  0  0  0
   16.7053   14.6940   31.7493 C   0  0  0  0  0  0
   16.1706   15.7533   32.4966 C   0  0  0  0  0  0
   17.5587   13.5846   32.3713 C   0  0  0  0  0  0
   18.0120   13.8376   33.7569 N   0  0  0  0  0  0
   17.4027   12.9807   34.7011 C   0  0  0  0  0  0
   17.7918   11.6364   34.8119 C   0  0  0  0  0  0
   17.1045   10.7675   35.6549 C   0  0  0  0  0  0
   16.0259   11.2188   36.4259 C   0  0  0  0  0  0
   15.6951   12.5821   36.3779 C   0  0  0  0  0  0
   16.3781   13.4551   35.5346 C   0  0  0  0  0  0
   15.2687   10.2514   37.3045 C   0  0  0  0  0  0
   15.7910    9.2015   37.6800 O   0  0  0  0  0  0
   14.0080   10.6039   37.6236 N   0  0  0  0  0  0
   13.0556    9.8536   38.4592 C   0  0  1  0  0  0
   12.5905    8.5381   37.7642 C   0  0  0  0  0  0
   13.5707    9.6115   39.8961 C   0  0  0  0  0  0
   13.7919   10.8070   40.5163 O   0  0  0  0  0  0
   13.7124    8.5141   40.3910 O   0  0  0  0  0  0
   12.1608    8.6258   36.2817 C   0  0  0  0  0  0
   10.9796    9.5560   35.9908 C   0  0  0  0  0  0
   10.5394    9.4280   34.7081 O   0  0  0  0  0  0
   10.4870   10.3380   36.8000 O   0  0  0  0  0  0
   12.2216   19.0841   30.1925 C   0  0  0  0  0  0
   16.0143   14.7577   35.5305 F   0  0  0  0  0  0
   19.4667   13.8148   33.8872 C   0  0  0  0  0  0
   20.1879   14.8926   33.0804 C   0  0  0  0  0  0
   21.6811   14.6237   32.7908 C   0  0  0  0  0  0
   22.3834   14.2280   33.9515 O   0  0  0  0  0  0
   13.6624   17.2294   29.0608 H   0  0  0  0  0  0
   15.2195   15.3494   28.7543 H   0  0  0  0  0  0
   16.7976   13.7827   29.8012 H   0  0  0  0  0  0
   16.4383   15.8708   33.5353 H   0  0  0  0  0  0
   18.4037   13.4010   31.7058 H   0  0  0  0  0  0
   16.9924   12.6572   32.3045 H   0  0  0  0  0  0
   18.5869   11.2384   34.1978 H   0  0  0  0  0  0
   17.4082    9.7325   35.6794 H   0  0  0  0  0  0
   14.9073   12.9940   36.9916 H   0  0  0  0  0  0
   13.6364   11.4373   37.1934 H   0  0  0  0  0  0
   12.1843   10.4965   38.5769 H   0  0  0  0  0  0
   11.7650    8.1054   38.3330 H   0  0  0  0  0  0
   13.3934    7.7995   37.8158 H   0  0  0  0  0  0
   13.6646   11.5419   39.9136 H   0  0  0  0  0  0
   11.8857    7.6205   35.9643 H   0  0  0  0  0  0
   13.0036    8.9276   35.6593 H   0  0  0  0  0  0
   10.9873    8.7278   34.2161 H   0  0  0  0  0  0
   11.7921   19.8021   30.8926 H   0  0  0  0  0  0
   12.6208   19.6503   29.3519 H   0  0  0  0  0  0
   11.4059   18.4621   29.8240 H   0  0  0  0  0  0
   19.8221   13.8035   34.9178 H   0  0  0  0  0  0
   19.7919   12.8531   33.5105 H   0  0  0  0  0  0
   19.7146   15.0280   32.1098 H   0  0  0  0  0  0
   19.9819   15.8276   33.5914 H   0  0  0  0  0  0
   21.7873   13.8281   32.0557 H   0  0  0  0  0  0
   22.1864   15.4900   32.3910 H   0  0  0  0  0  0
   22.2652   13.2679   34.0057 H   0  0  0  0  0  0
  1  2  2  0  0  0
  1  4  1  0  0  0
  2  3  1  0  0  0
  2 32  1  0  0  0
  3  7  1  0  0  0
  3 38  1  0  0  0
  4  5  2  0  0  0
  4  6  1  0  0  0
  6 11  1  0  0  0
  6  7  2  0  0  0
  7  8  1  0  0  0
  8  9  2  0  0  0
  8 39  1  0  0  0
  9 10  1  0  0  0
  9 40  1  0  0  0
 10 11  2  0  0  0
 10 12  1  0  0  0
 11 41  1  0  0  0
 12 13  1  0  0  0
 12 42  1  0  0  0
 12 43  1  0  0  0
 13 14  1  0  0  0
 13 34  1  0  0  0
 14 19  1  0  0  0
 14 15  2  0  0  0
 15 16  1  0  0  0
 15 44  1  0  0  0
 16 17  2  0  0  0
 16 45  1  0  0  0
 17 18  1  0  0  0
 17 20  1  0  0  0
 18 19  2  0  0  0
 18 46  1  0  0  0
 19 33  1  0  0  0
 20 21  2  0  0  0
 20 22  1  0  0  0
 22 23  1  0  0  0
 22 47  1  0  0  0
 23 24  1  0  0  0
 23 25  1  0  0  0
 23 48  1  0  0  0
 24 28  1  0  0  0
 24 49  1  0  0  0
 24 50  1  0  0  0
 25 26  1  0  0  0
 25 27  2  0  0  0
 26 51  1  0  0  0
 28 29  1  0  0  0
 28 52  1  0  0  0
 28 53  1  0  0  0
 29 30  1  0  0  0
 29 31  2  0  0  0
 30 54  1  0  0  0
 32 55  1  0  0  0
 32 56  1  0  0  0
 32 57  1  0  0  0
 34 35  1  0  0  0
 34 58  1  0  0  0
 34 59  1  0  0  0
 35 36  1  0  0  0
 35 60  1  0  0  0
 35 61  1  0  0  0
 36 37  1  0  0  0
 36 62  1  0  0  0
 36 63  1  0  0  0
 37 64  1  0  0  0
M  END
> <s_m_entry_id>
41043

> <s_m_entry_name>
dock_pv.160

> <s_m_Source_Path>
/home/csk/Desktop/cluster/DUD-E-result/tysy

> <s_m_Source_File>
dock_pv.maegz

> <i_m_Source_File_Index>
160

> <chembl_id>
CHEMBL104670

> <chembl_pref_name>
None

> <i_lp_mmshare_version>
53161

> <r_lp_tautomer_probability>
0.116051

> <s_lp_Force_Field>
OPLS_2005

> <r_lp_Energy>
22.058922

> <b_lp_Chiralities_Consistent>
1

> <s_lp_Variant>
CHEMBL1952_lig228-2

> <s_i_glide_gridfile>
glide-grid_1syn

> <i_i_glide_lignum>
453

> <i_i_glide_rotatable_bonds>
16

> <r_i_docking_score>
-8.18369978728372

> <r_i_glide_ligand_efficiency>
-0.221181075331992

> <r_i_glide_ligand_efficiency_sa>
-0.737024411504704

> <r_i_glide_ligand_efficiency_ln>
-1.77485263071851

> <r_i_glide_gscore>
-8.18369978728372

> <r_i_glide_lipo>
-2.98891490070194

> <r_i_glide_hbond>
-0.592232903498231

> <r_i_glide_metal>
0

> <r_i_glide_rewards>
-0.731433005779372

> <r_i_glide_evdw>
-46.4633140563965

> <r_i_glide_ecoul>
-16.938232421875

> <r_i_glide_erotb>
1.00739014797206

> <r_i_glide_esite>
-0.0146085591751601

> <r_i_glide_emodel>
-88.8050571138086

> <r_i_glide_energy>
-63.4015464782715

> <r_i_glide_einternal>
16.33327293396

> <i_i_glide_confnum>
30

> <i_i_glide_posenum>
217

> <r_i_glide_eff_state_penalty>
0

> <s_user_duplicate_titles>
CHEMBL1952_lig228,CHEMBL1952_lig228,171593

> <i_f3d_flags>
0

> <s_m_subgroup_title>
dock_pv

> <s_m_subgroupid>
dock_pv

> <b_m_subgroup_collapsed>
1

$$$$
CHEMBL1952_lig357
                    3D
 Schrodinger Suite 2021-1.
 43 46  0  0  1  0            999 V2000
   15.4708   15.9815   29.1909 N   0  0  0  0  0  0
   15.2325   16.2055   31.4363 C   0  0  0  0  0  0
   14.5173   16.8073   29.4062 C   0  0  0  0  0  0
   15.9459   15.5990   30.4368 C   0  0  0  0  0  0
   15.4412   16.0256   32.8211 C   0  0  0  0  0  0
   14.2842   17.0130   30.8425 C   0  0  0  0  0  0
   16.5615   15.1677   33.1674 C   0  0  0  0  0  0
   16.9768   14.9132   34.4892 N   0  0  0  0  0  0
   13.4398   17.7419   31.6747 C   0  0  0  0  0  0
   17.3099   14.5715   32.1284 C   0  0  0  0  0  0
   14.4991   16.7430   33.6488 C   0  0  0  0  0  0
   16.9966   14.7594   30.7784 C   0  0  0  0  0  0
   16.3199   13.8688   35.2751 C   0  0  0  0  0  0
   16.6110   10.1089   35.6302 N   0  0  0  0  0  0
   17.8077    9.8281   35.0867 N   0  0  0  0  0  0
   13.7923   17.4323   28.4088 N   0  0  0  0  0  0
   13.5483   17.5965   33.0597 C   0  0  0  0  0  0
   16.9303   12.4657   35.1909 C   0  0  0  0  0  0
   16.1844   11.3961   35.6921 C   0  0  0  0  0  0
   18.2651   15.4297   34.9206 C   0  0  0  0  0  0
   18.5920   10.8267   34.6139 C   0  0  0  0  0  0
   14.4262   16.5686   35.1519 C   0  0  0  0  0  0
   18.1842   12.1568   34.6367 C   0  0  0  0  0  0
   13.0185   18.6546   28.5773 C   0  0  0  0  0  0
   12.6836   18.4034   31.2796 H   0  0  0  0  0  0
   18.1502   13.9347   32.3609 H   0  0  0  0  0  0
   17.5825   14.2688   30.0167 H   0  0  0  0  0  0
   15.2753   13.8047   34.9730 H   0  0  0  0  0  0
   16.3108   14.1752   36.3221 H   0  0  0  0  0  0
   13.9944   17.1740   27.4534 H   0  0  0  0  0  0
   12.8588   18.1482   33.6833 H   0  0  0  0  0  0
   15.2120   11.5546   36.1353 H   0  0  0  0  0  0
   18.4874   16.3752   34.4243 H   0  0  0  0  0  0
   18.1930   15.6202   35.9895 H   0  0  0  0  0  0
   19.1104   14.7746   34.7357 H   0  0  0  0  0  0
   19.5430   10.5434   34.1857 H   0  0  0  0  0  0
   13.8136   17.3548   35.5907 H   0  0  0  0  0  0
   13.9739   15.6095   35.4036 H   0  0  0  0  0  0
   15.3919   16.6305   35.6256 H   0  0  0  0  0  0
   18.8388   12.8847   34.1969 H   0  0  0  0  0  0
   12.7353   19.0482   27.6010 H   0  0  0  0  0  0
   12.0996   18.4634   29.1332 H   0  0  0  0  0  0
   13.5929   19.4251   29.0947 H   0  0  0  0  0  0
  1  3  2  0  0  0
  1  4  1  0  0  0
  2  4  1  0  0  0
  2  5  1  0  0  0
  2  6  2  0  0  0
  3  6  1  0  0  0
  3 16  1  0  0  0
  4 12  2  0  0  0
  5 11  2  0  0  0
  5  7  1  0  0  0
  6  9  1  0  0  0
  7 10  2  0  0  0
  7  8  1  0  0  0
  8 13  1  0  0  0
  8 20  1  0  0  0
  9 17  2  0  0  0
  9 25  1  0  0  0
 10 12  1  0  0  0
 10 26  1  0  0  0
 11 22  1  0  0  0
 11 17  1  0  0  0
 12 27  1  0  0  0
 13 18  1  0  0  0
 13 28  1  0  0  0
 13 29  1  0  0  0
 14 19  2  0  0  0
 14 15  1  0  0  0
 15 21  2  0  0  0
 16 24  1  0  0  0
 16 30  1  0  0  0
 17 31  1  0  0  0
 18 19  1  0  0  0
 18 23  2  0  0  0
 19 32  1  0  0  0
 20 33  1  0  0  0
 20 34  1  0  0  0
 20 35  1  0  0  0
 21 23  1  0  0  0
 21 36  1  0  0  0
 22 37  1  0  0  0
 22 38  1  0  0  0
 22 39  1  0  0  0
 23 40  1  0  0  0
 24 41  1  0  0  0
 24 42  1  0  0  0
 24 43  1  0  0  0
M  END
> <s_m_entry_id>
41044

> <s_m_entry_name>
dock_pv.161

> <s_m_Source_Path>
/home/csk/Desktop/cluster/DUD-E-result/tysy

> <s_m_Source_File>
dock_pv.maegz

> <i_m_Source_File_Index>
161

> <chembl_id>
CHEMBL293810

> <chembl_pref_name>
None

> <i_lp_mmshare_version>
53161

> <r_lp_tautomer_probability>
1

> <s_lp_Force_Field>
OPLS_2005

> <r_lp_Energy>
60.715227

> <b_lp_Chiralities_Consistent>
1

> <s_lp_Variant>
CHEMBL1952_lig357-1

> <s_i_glide_gridfile>
glide-grid_1syn

> <i_i_glide_lignum>
669

> <i_i_glide_rotatable_bonds>
4

> <r_i_docking_score>
-8.17631119884175

> <r_i_glide_ligand_efficiency>
-0.340679633285073

> <r_i_glide_ligand_efficiency_sa>
-0.982690108394749

> <r_i_glide_ligand_efficiency_ln>
-1.95696645635627

> <r_i_glide_gscore>
-8.17631119884175

> <r_i_glide_lipo>
-4.03911129841279

> <r_i_glide_hbond>
0

> <r_i_glide_metal>
0

> <r_i_glide_rewards>
-1.93291465806184

> <r_i_glide_evdw>
-43.1349678039551

> <r_i_glide_ecoul>
-4.01575994491577

> <r_i_glide_erotb>
0.554827139567994

> <r_i_glide_esite>
0

> <r_i_glide_emodel>
-63.8596586520629

> <r_i_glide_energy>
-47.1507277488708

> <r_i_glide_einternal>
10.4590129852295

> <i_i_glide_confnum>
3

> <i_i_glide_posenum>
33

> <r_i_glide_eff_state_penalty>
0

> <s_user_duplicate_titles>
CHEMBL1952_lig357,87592

> <i_f3d_flags>
0

> <s_m_subgroup_title>
dock_pv

> <s_m_subgroupid>
dock_pv

> <b_m_subgroup_collapsed>
1

$$$$
CHEMBL1952_lig388
                    3D
 Schrodinger Suite 2021-1.
 60 64  0  0  1  0            999 V2000
   14.1389   11.0063   37.6508 S   0  0  0  0  0  0
   13.7770   18.2781   33.2780 N   0  0  0  0  0  0
   13.3055   18.0831   31.0864 N   0  0  0  0  0  0
   14.5994   17.3459   32.7151 C   0  0  0  0  0  0
   13.0094   18.6829   32.2971 C   0  0  0  0  0  0
   14.3116   17.1708   31.3462 C   0  0  0  0  0  0
   17.3702   14.9310   33.1426 N   0  0  0  0  0  0
   16.3220   15.6624   32.5556 C   0  0  0  0  0  0
   15.6159   16.6026   33.3182 C   0  0  0  0  0  0
   14.9933   16.2367   30.5660 C   0  0  0  0  0  0
   15.9939   15.4728   31.1850 C   0  0  0  0  0  0
   15.2064   12.1190   36.7449 C   0  0  0  0  0  0
   12.6874   10.8830   36.6114 C   0  0  0  0  0  0
   14.7897    9.6897   37.6895 O   0  0  0  0  0  0
   13.7384   11.6874   38.8889 O   0  0  0  0  0  0
   17.7254   14.8435   34.5637 C   0  0  0  0  0  0
   14.9495   13.4896   36.7873 C   0  0  0  0  0  0
   16.2727   11.6223   35.9913 C   0  0  0  0  0  0
   12.5988    9.8650   35.6637 C   0  0  0  0  0  0
   11.6772   11.8413   36.7124 C   0  0  0  0  0  0
   16.8311   13.8764   35.3257 C   0  0  0  0  0  0
   18.1275   13.9322   32.3789 C   0  0  0  0  0  0
   12.6154   18.2741   29.8165 C   0  0  0  0  0  0
   10.5097   10.8006   34.8646 C   0  0  0  0  0  0
   11.9111   19.7075   32.4817 C   0  0  0  0  0  0
   17.0899   12.5039   35.2886 C   0  0  0  0  0  0
   15.7586   14.3652   36.0728 C   0  0  0  0  0  0
   11.5173    9.8280   34.7911 C   0  0  0  0  0  0
   10.5913   11.7933   35.8417 C   0  0  0  0  0  0
   16.7216   14.4252   30.3516 C   0  0  0  0  0  0
    9.4218   10.8564   34.0163 O   0  0  0  0  0  0
   18.1385   14.2379   30.8856 C   0  0  0  0  0  0
    9.3263    9.9214   32.9449 C   0  0  0  0  0  0
   15.8375   16.7672   34.3580 H   0  0  0  0  0  0
   14.7557   16.0987   29.5212 H   0  0  0  0  0  0
   18.7630   14.5317   34.6963 H   0  0  0  0  0  0
   17.6958   15.8280   35.0158 H   0  0  0  0  0  0
   14.1285   13.8791   37.3717 H   0  0  0  0  0  0
   16.4751   10.5617   35.9526 H   0  0  0  0  0  0
   13.3772    9.1203   35.5816 H   0  0  0  0  0  0
   11.7424   12.6337   37.4439 H   0  0  0  0  0  0
   19.0907   13.6329   32.7972 H   0  0  0  0  0  0
   17.5067   13.0359   32.4329 H   0  0  0  0  0  0
   13.3417   18.2717   29.0031 H   0  0  0  0  0  0
   11.9009   17.4645   29.6678 H   0  0  0  0  0  0
   12.0881   19.2293   29.8036 H   0  0  0  0  0  0
   11.6436   19.8280   33.5307 H   0  0  0  0  0  0
   10.9918   19.4270   31.9744 H   0  0  0  0  0  0
   12.2080   20.6868   32.1064 H   0  0  0  0  0  0
   17.9213   12.1215   34.7134 H   0  0  0  0  0  0
   15.5566   15.4246   36.1214 H   0  0  0  0  0  0
   11.4870    9.0409   34.0537 H   0  0  0  0  0  0
    9.8177   12.5442   35.9053 H   0  0  0  0  0  0
   16.1922   13.4739   30.3981 H   0  0  0  0  0  0
   16.7478   14.7084   29.2984 H   0  0  0  0  0  0
   18.7547   15.1160   30.6886 H   0  0  0  0  0  0
   18.6220   13.4081   30.3910 H   0  0  0  0  0  0
    8.4386   10.1409   32.3519 H   0  0  0  0  0  0
   10.1879    9.9819   32.2789 H   0  0  0  0  0  0
    9.2315    8.8992   33.3134 H   0  0  0  0  0  0
  1 12  1  0  0  0
  1 13  1  0  0  0
  1 14  2  0  0  0
  1 15  2  0  0  0
  2  4  1  0  0  0
  2  5  2  0  0  0
  3  6  1  0  0  0
  3 23  1  0  0  0
  3  5  1  0  0  0
  4  9  2  0  0  0
  4  6  1  0  0  0
  5 25  1  0  0  0
  6 10  2  0  0  0
  7 16  1  0  0  0
  7  8  1  0  0  0
  7 22  1  0  0  0
  8  9  1  0  0  0
  8 11  2  0  0  0
  9 34  1  0  0  0
 10 11  1  0  0  0
 10 35  1  0  0  0
 11 30  1  0  0  0
 12 17  1  0  0  0
 12 18  2  0  0  0
 13 19  2  0  0  0
 13 20  1  0  0  0
 16 21  1  0  0  0
 16 36  1  0  0  0
 16 37  1  0  0  0
 17 27  2  0  0  0
 17 38  1  0  0  0
 18 26  1  0  0  0
 18 39  1  0  0  0
 19 28  1  0  0  0
 19 40  1  0  0  0
 20 29  2  0  0  0
 20 41  1  0  0  0
 21 26  2  0  0  0
 21 27  1  0  0  0
 22 32  1  0  0  0
 22 42  1  0  0  0
 22 43  1  0  0  0
 23 44  1  0  0  0
 23 45  1  0  0  0
 23 46  1  0  0  0
 24 29  1  0  0  0
 24 31  1  0  0  0
 24 28  2  0  0  0
 25 47  1  0  0  0
 25 48  1  0  0  0
 25 49  1  0  0  0
 26 50  1  0  0  0
 27 51  1  0  0  0
 28 52  1  0  0  0
 29 53  1  0  0  0
 30 32  1  0  0  0
 30 54  1  0  0  0
 30 55  1  0  0  0
 31 33  1  0  0  0
 32 56  1  0  0  0
 32 57  1  0  0  0
 33 58  1  0  0  0
 33 59  1  0  0  0
 33 60  1  0  0  0
M  END
> <s_m_entry_id>
41045

> <s_m_entry_name>
dock_pv.162

> <s_m_Source_Path>
/home/csk/Desktop/cluster/DUD-E-result/tysy

> <s_m_Source_File>
dock_pv.maegz

> <i_m_Source_File_Index>
162

> <chembl_id>
CHEMBL352620

> <chembl_pref_name>
None

> <i_lp_mmshare_version>
53161

> <r_lp_tautomer_probability>
1

> <s_lp_Force_Field>
OPLS_2005

> <r_lp_Energy>
21.810314

> <b_lp_Chiralities_Consistent>
1

> <s_lp_Variant>
CHEMBL1952_lig388-1

> <s_i_glide_gridfile>
glide-grid_1syn

> <i_i_glide_lignum>
769

> <i_i_glide_rotatable_bonds>
5

> <r_i_docking_score>
-8.17579043315659

> <r_i_glide_ligand_efficiency>
-0.247751225247169

> <r_i_glide_ligand_efficiency_sa>
-0.794670559352634

> <r_i_glide_ligand_efficiency_ln>
-1.81825346035672

> <r_i_glide_gscore>
-8.17579043315659

> <r_i_glide_lipo>
-4.10546114945891

> <r_i_glide_hbond>
0

> <r_i_glide_metal>
0

> <r_i_glide_rewards>
-1.20081602784615

> <r_i_glide_evdw>
-52.3132781982422

> <r_i_glide_ecoul>
-4.21279907226562

> <r_i_glide_erotb>
0.378070514900435

> <r_i_glide_esite>
0

> <r_i_glide_emodel>
-82.397135930746

> <r_i_glide_energy>
-56.5260772705078

> <r_i_glide_einternal>
2.63627076148987

> <i_i_glide_confnum>
12

> <i_i_glide_posenum>
306

> <r_i_glide_eff_state_penalty>
0

> <s_user_duplicate_titles>
CHEMBL1952_lig388,282733

> <i_f3d_flags>
0

> <s_m_subgroup_title>
dock_pv

> <s_m_subgroupid>
dock_pv

> <b_m_subgroup_collapsed>
1

$$$$
CHEMBL1952_lig340
                    3D
 Schrodinger Suite 2021-1.
 58 60  0  0  1  0            999 V2000
   13.2265   18.3409   31.4345 N   0  0  0  0  0  0
   14.1498   17.5515   32.0320 C   0  0  0  0  0  0
   13.7964   17.3507   29.3159 N   0  0  0  0  0  0
   14.9451   16.6259   31.3290 C   0  0  0  0  0  0
   14.6996   16.5651   29.9484 C   0  0  0  0  0  0
   13.1065   18.2100   30.0956 C   0  0  0  0  0  0
   16.8047   11.1274   35.8565 C   0  0  0  0  0  0
   15.7342   10.4303   36.5134 C   0  0  0  0  0  0
   14.5114   10.9545   36.2993 N   0  0  0  0  0  0
   14.2074   17.6527   33.4301 N   0  0  0  0  0  0
   16.5687   12.2976   35.1915 O   0  0  0  0  0  0
   13.1806   10.4257   36.6832 C   0  0  2  0  0  0
   18.1466   10.7994   35.7419 C   0  0  0  0  0  0
   12.8413    9.2585   35.6807 C   0  0  0  0  0  0
   17.7515   12.7174   34.6666 C   0  0  0  0  0  0
   18.7476   11.8355   35.0391 C   0  0  0  0  0  0
   16.0152   15.8009   32.0376 C   0  0  0  0  0  0
   12.8432   13.2720   38.4727 C   0  0  0  0  0  0
   15.9475    9.4282   37.1932 O   0  0  0  0  0  0
   13.6554    8.6270   35.0316 O   0  0  0  0  0  0
   12.1386   11.6033   36.5766 C   0  0  0  0  0  0
   12.2303   12.6803   39.3609 O   0  0  0  0  0  0
   15.3911   15.6776   29.1331 N   0  0  0  0  0  0
   12.1922   19.0279   29.4570 N   0  0  0  0  0  0
   15.3763   17.1132   34.1248 C   0  0  0  0  0  0
   12.5946   13.0443   36.9745 C   0  0  0  0  0  0
   11.5028    9.0272   35.5908 O   0  0  0  0  0  0
   17.7375   13.9302   33.7636 C   0  0  0  0  0  0
   15.8044   15.7296   33.5703 C   0  0  2  0  0  0
   13.7920   14.2261   38.6938 O   0  0  0  0  0  0
   17.0482   15.1946   34.3414 C   0  0  0  0  0  0
   13.1575    9.8569   38.1322 C   0  0  0  0  0  0
   14.4848   11.6654   35.5841 H   0  0  0  0  0  0
   13.7849   18.4687   33.8541 H   0  0  0  0  0  0
   18.6505    9.9313   36.1411 H   0  0  0  0  0  0
   19.7919   11.9081   34.7909 H   0  0  0  0  0  0
   16.9936   16.2289   31.8212 H   0  0  0  0  0  0
   16.0222   14.7998   31.6078 H   0  0  0  0  0  0
   11.2358   11.3545   37.1379 H   0  0  0  0  0  0
   11.7891   11.6781   35.5467 H   0  0  0  0  0  0
   16.0462   15.0279   29.5361 H   0  0  0  0  0  0
   15.1385   15.6360   28.1585 H   0  0  0  0  0  0
   12.0249   18.8758   28.4755 H   0  0  0  0  0  0
   11.4861   19.4930   30.0139 H   0  0  0  0  0  0
   15.1315   17.0417   35.1856 H   0  0  0  0  0  0
   16.1922   17.8298   34.0611 H   0  0  0  0  0  0
   11.8037   13.7451   36.6979 H   0  0  0  0  0  0
   13.4605   13.3454   36.3843 H   0  0  0  0  0  0
   11.3762    8.3260   34.9381 H   0  0  0  0  0  0
   18.7630   14.1822   33.4856 H   0  0  0  0  0  0
   17.2848   13.6130   32.8284 H   0  0  0  0  0  0
   14.9920   15.0292   33.7670 H   0  0  0  0  0  0
   14.1760   14.5761   37.8869 H   0  0  0  0  0  0
   16.7746   15.0283   35.3862 H   0  0  0  0  0  0
   17.8004   15.9852   34.3784 H   0  0  0  0  0  0
   12.1411    9.6420   38.4646 H   0  0  0  0  0  0
   13.7129    8.9235   38.2240 H   0  0  0  0  0  0
   13.5926   10.5550   38.8452 H   0  0  0  0  0  0
  1  2  2  0  0  0
  1  6  1  0  0  0
  2  4  1  0  0  0
  2 10  1  0  0  0
  3  6  2  0  0  0
  3  5  1  0  0  0
  4 17  1  0  0  0
  4  5  2  0  0  0
  5 23  1  0  0  0
  6 24  1  0  0  0
  7 11  1  0  0  0
  7  8  1  0  0  0
  7 13  2  0  0  0
  8  9  1  0  0  0
  8 19  2  0  0  0
  9 12  1  0  0  0
  9 33  1  0  0  0
 10 25  1  0  0  0
 10 34  1  0  0  0
 11 15  1  0  0  0
 12 14  1  0  0  0
 12 21  1  0  0  0
 12 32  1  0  0  0
 13 16  1  0  0  0
 13 35  1  0  0  0
 14 20  2  0  0  0
 14 27  1  0  0  0
 15 28  1  0  0  0
 15 16  2  0  0  0
 16 36  1  0  0  0
 17 29  1  0  0  0
 17 37  1  0  0  0
 17 38  1  0  0  0
 18 26  1  0  0  0
 18 22  2  0  0  0
 18 30  1  0  0  0
 21 26  1  0  0  0
 21 39  1  0  0  0
 21 40  1  0  0  0
 23 41  1  0  0  0
 23 42  1  0  0  0
 24 43  1  0  0  0
 24 44  1  0  0  0
 25 29  1  0  0  0
 25 45  1  0  0  0
 25 46  1  0  0  0
 26 47  1  0  0  0
 26 48  1  0  0  0
 27 49  1  0  0  0
 28 31  1  0  0  0
 28 50  1  0  0  0
 28 51  1  0  0  0
 29 31  1  0  0  0
 29 52  1  0  0  0
 30 53  1  0  0  0
 31 54  1  0  0  0
 31 55  1  0  0  0
 32 56  1  0  0  0
 32 57  1  0  0  0
 32 58  1  0  0  0
M  END
> <s_m_entry_id>
41046

> <s_m_entry_name>
dock_pv.163

> <s_m_Source_Path>
/home/csk/Desktop/cluster/DUD-E-result/tysy

> <s_m_Source_File>
dock_pv.maegz

> <i_m_Source_File_Index>
163

> <chembl_id>
CHEMBL167304

> <chembl_pref_name>
None

> <i_lp_mmshare_version>
53161

> <r_lp_tautomer_probability>
1

> <s_lp_Force_Field>
OPLS_2005

> <r_lp_Energy>
7.904805

> <b_lp_Chiralities_Consistent>
1

> <s_lp_Variant>
CHEMBL1952_lig340-2

> <s_i_glide_gridfile>
glide-grid_1syn

> <i_i_glide_lignum>
616

> <i_i_glide_rotatable_bonds>
12

> <r_i_docking_score>
-8.17422118736454

> <r_i_glide_ligand_efficiency>
-0.255444412105142

> <r_i_glide_ligand_efficiency_sa>
-0.810985456053314

> <r_i_glide_ligand_efficiency_ln>
-1.83043094470496

> <r_i_glide_gscore>
-8.17422118736454

> <r_i_glide_lipo>
-2.83683401029545

> <r_i_glide_hbond>
-0.508689934703858

> <r_i_glide_metal>
0

> <r_i_glide_rewards>
-1.10449267256769

> <r_i_glide_evdw>
-50.0560111999512

> <r_i_glide_ecoul>
-14.521110534668

> <r_i_glide_erotb>
1.00422350762487

> <r_i_glide_esite>
-0.0474609372246661

> <r_i_glide_emodel>
-90.9183418375846

> <r_i_glide_energy>
-64.5771217346191

> <r_i_glide_einternal>
11.5026369094849

> <i_i_glide_confnum>
438

> <i_i_glide_posenum>
155

> <r_i_glide_eff_state_penalty>
0

> <s_user_duplicate_titles>
CHEMBL1952_lig340

> <i_f3d_flags>
0

> <s_m_subgroup_title>
dock_pv

> <s_m_subgroupid>
dock_pv

> <b_m_subgroup_collapsed>
1

$$$$
CHEMBL1952_lig129
                    3D
 Schrodinger Suite 2021-1.
 31 33  0  0  1  0            999 V2000
   14.9537   16.7676   31.7754 C   0  0  0  0  0  0
   14.5503   16.2807   30.5040 C   0  0  0  0  0  0
   13.5260   16.7275   29.7793 N   0  0  0  0  0  0
   16.1068   15.9908   32.1617 C   0  0  0  0  0  0
   14.1764   17.8303   32.2934 C   0  0  0  0  0  0
   13.1248   18.3057   31.5798 N   0  0  0  0  0  0
   12.8644   17.7429   30.3788 C   0  0  0  0  0  0
   15.4098   15.2716   30.1514 N   0  0  0  0  0  0
   16.3388   15.0761   31.1424 C   0  0  0  0  0  0
   17.1020   16.1809   33.5894 S   0  0  0  0  0  0
   16.4217   14.9241   34.6211 C   0  0  0  0  0  0
   14.5255   18.3408   33.5125 O   0  0  0  0  0  0
   17.1541   13.7602   34.8646 C   0  0  0  0  0  0
   15.1585   15.0877   35.1930 C   0  0  0  0  0  0
   14.6238   14.0795   35.9941 C   0  0  0  0  0  0
   16.6103   12.7484   35.6546 C   0  0  0  0  0  0
   15.3473   12.9099   36.2205 C   0  0  0  0  0  0
   11.7957   18.2570   29.6731 N   0  0  0  0  0  0
   13.3981   14.2276   36.5424 F   0  0  0  0  0  0
   17.3028   11.6073   35.8675 F   0  0  0  0  0  0
   17.3882   13.9995   30.9891 C   0  0  0  0  0  0
   15.3886   14.7155   29.3103 H   0  0  0  0  0  0
   13.9338   19.0612   33.7542 H   0  0  0  0  0  0
   18.1332   13.6286   34.4286 H   0  0  0  0  0  0
   14.5943   15.9914   35.0198 H   0  0  0  0  0  0
   14.9280   12.1265   36.8299 H   0  0  0  0  0  0
   11.5956   17.8759   28.7655 H   0  0  0  0  0  0
   11.2015   18.9685   30.0857 H   0  0  0  0  0  0
   17.7446   13.6254   31.9486 H   0  0  0  0  0  0
   17.0111   13.1300   30.4468 H   0  0  0  0  0  0
   18.2652   14.3626   30.4530 H   0  0  0  0  0  0
  1  2  1  0  0  0
  1  4  1  0  0  0
  1  5  2  0  0  0
  2  3  2  0  0  0
  2  8  1  0  0  0
  3  7  1  0  0  0
  4  9  2  0  0  0
  4 10  1  0  0  0
  5  6  1  0  0  0
  5 12  1  0  0  0
  6  7  2  0  0  0
  7 18  1  0  0  0
  8  9  1  0  0  0
  8 22  1  0  0  0
  9 21  1  0  0  0
 10 11  1  0  0  0
 11 13  1  0  0  0
 11 14  2  0  0  0
 12 23  1  0  0  0
 13 16  2  0  0  0
 13 24  1  0  0  0
 14 15  1  0  0  0
 14 25  1  0  0  0
 15 17  2  0  0  0
 15 19  1  0  0  0
 16 20  1  0  0  0
 16 17  1  0  0  0
 17 26  1  0  0  0
 18 27  1  0  0  0
 18 28  1  0  0  0
 21 29  1  0  0  0
 21 30  1  0  0  0
 21 31  1  0  0  0
M  END
> <s_m_entry_id>
41048

> <s_m_entry_name>
dock_pv.165

> <s_m_Source_Path>
/home/csk/Desktop/cluster/DUD-E-result/tysy

> <s_m_Source_File>
dock_pv.maegz

> <i_m_Source_File_Index>
165

> <chembl_id>
CHEMBL196706

> <chembl_pref_name>
None

> <i_lp_mmshare_version>
53161

> <r_lp_tautomer_probability>
1

> <s_lp_Force_Field>
OPLS_2005

> <r_lp_Energy>
1.273683

> <b_lp_Chiralities_Consistent>
1

> <s_lp_Variant>
CHEMBL1952_lig129-1

> <s_i_glide_gridfile>
glide-grid_1syn

> <i_i_glide_lignum>
306

> <i_i_glide_rotatable_bonds>
3

> <r_i_docking_score>
-8.16524413956913

> <r_i_glide_ligand_efficiency>
-0.388821149503292

> <r_i_glide_ligand_efficiency_sa>
-1.07272806856428

> <r_i_glide_ligand_efficiency_ln>
-2.01884011407912

> <r_i_glide_gscore>
-8.16524413956913

> <r_i_glide_lipo>
-3.01682869777504

> <r_i_glide_hbond>
-0.308107355594941

> <r_i_glide_metal>
0

> <r_i_glide_rewards>
-2.46814191624298

> <r_i_glide_evdw>
-39.1207580566406

> <r_i_glide_ecoul>
-5.04493999481201

> <r_i_glide_erotb>
0.389246412163499

> <r_i_glide_esite>
-0.0486336800658442

> <r_i_glide_emodel>
-65.7566804934381

> <r_i_glide_energy>
-44.1656980514526

> <r_i_glide_einternal>
2.51085519790649

> <i_i_glide_confnum>
9

> <i_i_glide_posenum>
49

> <r_i_glide_eff_state_penalty>
0

> <s_user_duplicate_titles>
CHEMBL1952_lig129

> <i_f3d_flags>
0

> <s_m_subgroup_title>
dock_pv

> <s_m_subgroupid>
dock_pv

> <b_m_subgroup_collapsed>
1

$$$$
CHEMBL1952_lig233
                    3D
 Schrodinger Suite 2021-1.
 60 62  0  0  1  0            999 V2000
   13.3971   18.0983   31.6766 N   0  0  0  0  0  0
   13.5063   17.6012   30.4082 C   0  0  0  0  0  0
   14.3714   16.6967   30.1190 N   0  0  0  0  0  0
   14.1438   17.7579   32.7528 C   0  0  0  0  0  0
   13.9361   18.2277   33.8646 O   0  0  0  0  0  0
   15.2034   16.7402   32.4204 C   0  0  0  0  0  0
   15.2446   16.2313   31.1187 C   0  0  0  0  0  0
   16.1934   15.2654   30.7905 C   0  0  0  0  0  0
   17.1020   14.8246   31.7599 C   0  0  0  0  0  0
   17.0616   15.3478   33.0619 C   0  0  0  0  0  0
   16.1037   16.3084   33.3914 C   0  0  0  0  0  0
   18.0766   14.9171   34.1155 C   0  0  0  0  0  0
   17.9857   13.4855   34.4177 N   0  0  0  0  0  0
   16.9890   12.9470   35.2744 C   0  0  0  0  0  0
   16.9632   11.5824   35.5908 C   0  0  0  0  0  0
   15.9816   11.0514   36.4192 C   0  0  0  0  0  0
   14.9805   11.8640   36.9751 C   0  0  0  0  0  0
   14.9833   13.2383   36.6536 C   0  0  0  0  0  0
   15.9860   13.7537   35.8277 C   0  0  0  0  0  0
   13.9837   11.2542   37.9379 C   0  0  0  0  0  0
   13.5614   11.8735   38.9164 O   0  0  0  0  0  0
   13.6153    9.9937   37.6553 N   0  0  0  0  0  0
   12.7742    9.1255   38.4865 C   0  0  1  0  0  0
   11.9831    8.1300   37.5809 C   0  0  0  0  0  0
   13.5992    8.4415   39.6058 C   0  0  0  0  0  0
   12.7601    7.7839   40.4573 O   0  0  0  0  0  0
   14.8096    8.4953   39.7046 O   0  0  0  0  0  0
   12.7597    6.9512   36.9380 C   0  0  0  0  0  0
   13.8667    7.4015   35.9909 C   0  0  0  0  0  0
   13.3920    7.8279   34.7910 O   0  0  0  0  0  0
   15.0517    7.4425   36.3024 O   0  0  0  0  0  0
   12.5803   18.1598   29.3553 C   0  0  0  0  0  0
   18.9920   12.6123   33.8228 C   0  0  0  0  0  0
   13.9058   14.2105   37.1196 C   0  0  0  0  0  0
   12.7025   18.8015   31.8692 H   0  0  0  0  0  0
   16.2307   14.8679   29.7874 H   0  0  0  0  0  0
   17.8441   14.0822   31.4989 H   0  0  0  0  0  0
   16.0600   16.7190   34.3903 H   0  0  0  0  0  0
   17.9713   15.4933   35.0347 H   0  0  0  0  0  0
   19.0688   15.1659   33.7350 H   0  0  0  0  0  0
   17.7082   10.9058   35.2026 H   0  0  0  0  0  0
   16.0356    9.9958   36.6452 H   0  0  0  0  0  0
   15.9624   14.8085   35.6170 H   0  0  0  0  0  0
   14.0253    9.5581   36.8430 H   0  0  0  0  0  0
   12.0452    9.7709   38.9809 H   0  0  0  0  0  0
   11.4869    8.6934   36.7881 H   0  0  0  0  0  0
   11.1594    7.7076   38.1571 H   0  0  0  0  0  0
   11.8416    7.8387   40.1898 H   0  0  0  0  0  0
   12.0753    6.3014   36.3903 H   0  0  0  0  0  0
   13.2055    6.3240   37.7111 H   0  0  0  0  0  0
   12.4384    7.7016   34.6723 H   0  0  0  0  0  0
   12.7424   17.6812   28.3908 H   0  0  0  0  0  0
   11.5356   18.0132   29.6307 H   0  0  0  0  0  0
   12.7450   19.2293   29.2228 H   0  0  0  0  0  0
   18.5305   11.8389   33.2077 H   0  0  0  0  0  0
   19.6880   13.1642   33.1906 H   0  0  0  0  0  0
   19.5768   12.1160   34.5986 H   0  0  0  0  0  0
   13.7982   15.0280   36.4051 H   0  0  0  0  0  0
   12.9259   13.7354   37.1678 H   0  0  0  0  0  0
   14.1519   14.6215   38.0994 H   0  0  0  0  0  0
  1  2  1  0  0  0
  1  4  1  0  0  0
  1 35  1  0  0  0
  2 32  1  0  0  0
  2  3  2  0  0  0
  3  7  1  0  0  0
  4  6  1  0  0  0
  4  5  2  0  0  0
  6 11  1  0  0  0
  6  7  2  0  0  0
  7  8  1  0  0  0
  8  9  2  0  0  0
  8 36  1  0  0  0
  9 10  1  0  0  0
  9 37  1  0  0  0
 10 11  2  0  0  0
 10 12  1  0  0  0
 11 38  1  0  0  0
 12 13  1  0  0  0
 12 39  1  0  0  0
 12 40  1  0  0  0
 13 14  1  0  0  0
 13 33  1  0  0  0
 14 19  1  0  0  0
 14 15  2  0  0  0
 15 16  1  0  0  0
 15 41  1  0  0  0
 16 17  2  0  0  0
 16 42  1  0  0  0
 17 18  1  0  0  0
 17 20  1  0  0  0
 18 19  2  0  0  0
 18 34  1  0  0  0
 19 43  1  0  0  0
 20 21  2  0  0  0
 20 22  1  0  0  0
 22 23  1  0  0  0
 22 44  1  0  0  0
 23 24  1  0  0  0
 23 25  1  0  0  0
 23 45  1  0  0  0
 24 28  1  0  0  0
 24 46  1  0  0  0
 24 47  1  0  0  0
 25 26  1  0  0  0
 25 27  2  0  0  0
 26 48  1  0  0  0
 28 29  1  0  0  0
 28 49  1  0  0  0
 28 50  1  0  0  0
 29 30  1  0  0  0
 29 31  2  0  0  0
 30 51  1  0  0  0
 32 52  1  0  0  0
 32 53  1  0  0  0
 32 54  1  0  0  0
 33 55  1  0  0  0
 33 56  1  0  0  0
 33 57  1  0  0  0
 34 58  1  0  0  0
 34 59  1  0  0  0
 34 60  1  0  0  0
M  END
> <s_m_entry_id>
41049

> <s_m_entry_name>
dock_pv.166

> <s_m_Source_Path>
/home/csk/Desktop/cluster/DUD-E-result/tysy

> <s_m_Source_File>
dock_pv.maegz

> <i_m_Source_File_Index>
166

> <chembl_id>
CHEMBL320470

> <chembl_pref_name>
None

> <i_lp_mmshare_version>
53161

> <r_lp_tautomer_probability>
0.883938

> <s_lp_Force_Field>
OPLS_2005

> <r_lp_Energy>
26.077003

> <b_lp_Chiralities_Consistent>
1

> <s_lp_Variant>
CHEMBL1952_lig233-1

> <s_i_glide_gridfile>
glide-grid_1syn

> <i_i_glide_lignum>
462

> <i_i_glide_rotatable_bonds>
12

> <r_i_docking_score>
-8.16152635970467

> <r_i_glide_ligand_efficiency>
-0.24004489293249

> <r_i_glide_ligand_efficiency_sa>
-0.777652267066391

> <r_i_glide_ligand_efficiency_ln>
-1.80311009591901

> <r_i_glide_gscore>
-8.16152635970467

> <r_i_glide_lipo>
-3.78330716756715

> <r_i_glide_hbond>
0

> <r_i_glide_metal>
0

> <r_i_glide_rewards>
-0.920389520733975

> <r_i_glide_evdw>
-53.8942642211914

> <r_i_glide_ecoul>
-11.2682657241821

> <r_i_glide_erotb>
0.927123398283343

> <r_i_glide_esite>
0

> <r_i_glide_emodel>
-94.6409346426101

> <r_i_glide_energy>
-65.1625299453735

> <r_i_glide_einternal>
6.04535627365112

> <i_i_glide_confnum>
70

> <i_i_glide_posenum>
109

> <r_i_glide_eff_state_penalty>
0

> <s_user_duplicate_titles>
CHEMBL1952_lig233,CHEMBL1952_lig233,171566

> <i_f3d_flags>
0

> <s_m_subgroup_title>
dock_pv

> <s_m_subgroupid>
dock_pv

> <b_m_subgroup_collapsed>
1

$$$$
CHEMBL1952_lig321 
                    3D
 Schrodinger Suite 2021-1.
 50 53  0  0  1  0            999 V2000
   14.3724   17.4783   31.9505 N   0  0  0  0  0  0
   14.1401   17.1390   30.6304 C   0  0  0  0  0  0
   14.8291   16.2139   30.0537 N   0  0  0  0  0  0
   15.3049   16.9552   32.8107 C   0  0  0  0  0  0
   16.0976   15.9188   32.1400 C   0  0  0  0  0  0
   15.7922   15.6182   30.8130 C   0  0  0  0  0  0
   16.6294   14.6274   30.3901 N   0  0  0  0  0  0
   17.4750   14.3120   31.4246 C   0  0  0  0  0  0
   17.1737   15.0958   32.5425 C   0  0  0  0  0  0
   15.3914   17.3638   33.9658 O   0  0  0  0  0  0
   13.1310   17.8255   29.9287 N   0  0  0  0  0  0
   17.8799   15.0686   33.8842 C   0  0  0  0  0  0
   17.3293   13.9632   34.7710 C   0  0  0  0  0  0
   17.8955   12.6895   34.7174 C   0  0  0  0  0  0
   17.3168   11.6426   35.4275 C   0  0  0  0  0  0
   16.1585   11.8523   36.1891 C   0  0  0  0  0  0
   15.6324   13.1513   36.2857 C   0  0  0  0  0  0
   16.2188   14.2014   35.5834 C   0  0  0  0  0  0
   15.5123   10.6788   36.8892 C   0  0  0  0  0  0
   16.1829    9.6902   37.1907 O   0  0  0  0  0  0
   14.1870   10.7800   37.1284 N   0  0  0  0  0  0
   13.3781    9.8001   37.7460 C   0  0  0  0  0  0
   13.4188    8.4738   37.2785 C   0  0  0  0  0  0
   12.6497    7.4630   37.8758 C   0  0  0  0  0  0
   11.8379    7.8023   38.9640 C   0  0  0  0  0  0
   11.7709    9.1146   39.4245 C   0  0  0  0  0  0
   12.5136   10.1334   38.8151 C   0  0  0  0  0  0
   12.3804   11.5306   39.3643 C   0  0  0  0  0  0
   12.1022   12.4675   38.4149 O   0  0  0  0  0  0
   12.4414   11.7743   40.5697 O   0  0  0  0  0  0
   12.6980    6.0314   37.3888 C   0  0  0  0  0  0
   13.3922    5.8286   36.2350 O   0  0  0  0  0  0
   12.1457    5.1133   37.9914 O   0  0  0  0  0  0
   13.8007   18.2006   32.3590 H   0  0  0  0  0  0
   16.6276   14.2149   29.4680 H   0  0  0  0  0  0
   18.2317   13.5495   31.2866 H   0  0  0  0  0  0
   13.0968   17.7249   28.9258 H   0  0  0  0  0  0
   12.8909   18.7636   30.2144 H   0  0  0  0  0  0
   17.7877   16.0284   34.3902 H   0  0  0  0  0  0
   18.9529   14.9236   33.7499 H   0  0  0  0  0  0
   18.7605   12.4987   34.0957 H   0  0  0  0  0  0
   17.7592   10.6584   35.3503 H   0  0  0  0  0  0
   14.7662   13.3676   36.8940 H   0  0  0  0  0  0
   15.7865   15.1906   35.6399 H   0  0  0  0  0  0
   13.7599   11.6625   36.9017 H   0  0  0  0  0  0
   14.0658    8.2344   36.4456 H   0  0  0  0  0  0
   11.2373    7.0508   39.4584 H   0  0  0  0  0  0
   11.1200    9.3313   40.2608 H   0  0  0  0  0  0
   11.8649   12.0460   37.5874 H   0  0  0  0  0  0
   13.3940    4.8896   35.9897 H   0  0  0  0  0  0
  1  2  1  0  0  0
  1  4  1  0  0  0
  1 34  1  0  0  0
  2  3  2  0  0  0
  2 11  1  0  0  0
  3  6  1  0  0  0
  4  5  1  0  0  0
  4 10  2  0  0  0
  5  6  2  0  0  0
  5  9  1  0  0  0
  6  7  1  0  0  0
  7  8  1  0  0  0
  7 35  1  0  0  0
  8  9  2  0  0  0
  8 36  1  0  0  0
  9 12  1  0  0  0
 11 37  1  0  0  0
 11 38  1  0  0  0
 12 13  1  0  0  0
 12 39  1  0  0  0
 12 40  1  0  0  0
 13 14  2  0  0  0
 13 18  1  0  0  0
 14 15  1  0  0  0
 14 41  1  0  0  0
 15 16  2  0  0  0
 15 42  1  0  0  0
 16 17  1  0  0  0
 16 19  1  0  0  0
 17 18  2  0  0  0
 17 43  1  0  0  0
 18 44  1  0  0  0
 19 20  2  0  0  0
 19 21  1  0  0  0
 21 22  1  0  0  0
 21 45  1  0  0  0
 22 23  2  0  0  0
 22 27  1  0  0  0
 23 24  1  0  0  0
 23 46  1  0  0  0
 24 25  2  0  0  0
 24 31  1  0  0  0
 25 26  1  0  0  0
 25 47  1  0  0  0
 26 27  2  0  0  0
 26 48  1  0  0  0
 27 28  1  0  0  0
 28 29  1  0  0  0
 28 30  2  0  0  0
 29 49  1  0  0  0
 31 32  1  0  0  0
 31 33  2  0  0  0
 32 50  1  0  0  0
M  END
> <s_m_entry_id>
41050

> <s_m_entry_name>
dock_pv.167

> <s_m_Source_Path>
/home/csk/Desktop/cluster/DUD-E-result/tysy

> <s_m_Source_File>
dock_pv.maegz

> <i_m_Source_File_Index>
167

> <chembl_id>
CHEMBL4562561

> <chembl_pref_name>
None

> <i_lp_mmshare_version>
53161

> <r_lp_tautomer_probability>
1

> <s_lp_Force_Field>
OPLS_2005

> <r_lp_Energy>
38.315874

> <b_lp_Chiralities_Consistent>
1

> <s_lp_Variant>
CHEMBL1952_lig321 -1

> <s_i_glide_gridfile>
glide-grid_1syn

> <i_i_glide_lignum>
596

> <i_i_glide_rotatable_bonds>
9

> <r_i_docking_score>
-8.15500829952251

> <r_i_glide_ligand_efficiency>
-0.247121463621894

> <r_i_glide_ligand_efficiency_sa>
-0.792650577322204

> <r_i_glide_ligand_efficiency_ln>
-1.81363162144063

> <r_i_glide_gscore>
-8.15500829952251

> <r_i_glide_lipo>
-2.61649719276539

> <r_i_glide_hbond>
-0.285621301040693

> <r_i_glide_metal>
0

> <r_i_glide_rewards>
-1.25830189855463

> <r_i_glide_evdw>
-48.8651695251465

> <r_i_glide_ecoul>
-14.8527383804321

> <r_i_glide_erotb>
0.700265704977415

> <r_i_glide_esite>
-0.0236843788170612

> <r_i_glide_emodel>
-93.507486452162

> <r_i_glide_energy>
-63.7179079055786

> <r_i_glide_einternal>
5.04060554504395

> <i_i_glide_confnum>
68

> <i_i_glide_posenum>
312

> <r_i_glide_eff_state_penalty>
0

> <s_user_duplicate_titles>
CHEMBL1952_lig321 

> <i_f3d_flags>
0

> <s_m_subgroup_title>
dock_pv

> <s_m_subgroupid>
dock_pv

> <b_m_subgroup_collapsed>
1

$$$$
CHEMBL1952_lig55
                    3D
 Schrodinger Suite 2021-1.
 29 31  0  0  1  0            999 V2000
   14.2582   18.1267   32.9468 C   0  0  0  0  0  0
   14.6301   17.2387   31.8694 C   0  0  0  0  0  0
   13.3146   19.0637   32.7911 N   0  0  0  0  0  0
   12.7076   19.1698   31.6131 C   0  0  0  0  0  0
   12.9168   18.3938   30.5346 N   0  0  0  0  0  0
   13.8786   17.4362   30.6604 C   0  0  0  0  0  0
   15.6494   16.2281   31.8873 C   0  0  0  0  0  0
   14.8459   18.0622   34.1703 O   0  0  0  0  0  0
   15.8609   15.4281   30.7178 C   0  0  0  0  0  0
   16.5070   15.9724   33.0045 C   0  0  0  0  0  0
   14.1233   16.6382   29.5305 C   0  0  0  0  0  0
   11.7920   20.1979   31.5378 N   0  0  0  0  0  0
   15.0844   15.6426   29.5608 C   0  0  0  0  0  0
   16.8592   14.4263   30.7137 C   0  0  0  0  0  0
   17.4976   14.9984   32.9622 C   0  0  0  0  0  0
   18.5324   14.7944   34.3858 S   0  0  0  0  0  0
   17.6689   14.2224   31.8217 C   0  0  0  0  0  0
   19.7918   13.5567   33.9908 C   0  0  0  0  0  0
   14.4347   18.7387   34.7175 H   0  0  0  0  0  0
   16.4482   16.5294   33.9168 H   0  0  0  0  0  0
   13.5557   16.8135   28.6273 H   0  0  0  0  0  0
   11.1042   20.1760   30.7906 H   0  0  0  0  0  0
   11.6336   20.7170   32.3882 H   0  0  0  0  0  0
   15.2564   15.0361   28.6806 H   0  0  0  0  0  0
   16.9919   13.8217   29.8290 H   0  0  0  0  0  0
   18.4277   13.4554   31.7716 H   0  0  0  0  0  0
   20.5249   13.4783   34.7909 H   0  0  0  0  0  0
   20.3225   13.8287   33.0788 H   0  0  0  0  0  0
   19.3333   12.5791   33.8480 H   0  0  0  0  0  0
  1  2  1  0  0  0
  1  3  2  0  0  0
  1  8  1  0  0  0
  2  6  2  0  0  0
  2  7  1  0  0  0
  3  4  1  0  0  0
  4  5  2  0  0  0
  4 12  1  0  0  0
  5  6  1  0  0  0
  6 11  1  0  0  0
  7  9  2  0  0  0
  7 10  1  0  0  0
  8 19  1  0  0  0
  9 13  1  0  0  0
  9 14  1  0  0  0
 10 15  2  0  0  0
 10 20  1  0  0  0
 11 13  2  0  0  0
 11 21  1  0  0  0
 12 22  1  0  0  0
 12 23  1  0  0  0
 13 24  1  0  0  0
 14 17  2  0  0  0
 14 25  1  0  0  0
 15 16  1  0  0  0
 15 17  1  0  0  0
 16 18  1  0  0  0
 17 26  1  0  0  0
 18 27  1  0  0  0
 18 28  1  0  0  0
 18 29  1  0  0  0
M  END
> <s_m_entry_id>
41051

> <s_m_entry_name>
dock_pv.168

> <s_m_Source_Path>
/home/csk/Desktop/cluster/DUD-E-result/tysy

> <s_m_Source_File>
dock_pv.maegz

> <i_m_Source_File_Index>
168

> <chembl_id>
CHEMBL72371

> <chembl_pref_name>
None

> <i_lp_mmshare_version>
53161

> <r_lp_tautomer_probability>
1

> <s_lp_Force_Field>
OPLS_2005

> <r_lp_Energy>
13.716719

> <b_lp_Chiralities_Consistent>
1

> <s_lp_Variant>
CHEMBL1952_lig55-1

> <s_i_glide_gridfile>
glide-grid_1syn

> <i_i_glide_lignum>
76

> <i_i_glide_rotatable_bonds>
2

> <r_i_docking_score>
-8.15243062973489

> <r_i_glide_ligand_efficiency>
-0.452912812763049

> <r_i_glide_ligand_efficiency_sa>
-1.18696735523211

> <r_i_glide_ligand_efficiency_ln>
-2.09554025606631

> <r_i_glide_gscore>
-8.15243062973489

> <r_i_glide_lipo>
-3.08284266636483

> <r_i_glide_hbond>
-0.305680055212476

> <r_i_glide_metal>
0

> <r_i_glide_rewards>
-2.22512071009087

> <r_i_glide_evdw>
-38.9678916931152

> <r_i_glide_ecoul>
-3.935950756073

> <r_i_glide_erotb>
0

> <r_i_glide_esite>
0

> <r_i_glide_emodel>
-62.6292164548235

> <r_i_glide_energy>
-42.9038424491882

> <r_i_glide_einternal>
2.63056111335754

> <i_i_glide_confnum>
1

> <i_i_glide_posenum>
314

> <r_i_glide_eff_state_penalty>
0

> <s_user_duplicate_titles>
CHEMBL1952_lig55

> <i_f3d_flags>
0

> <s_m_subgroup_title>
dock_pv

> <s_m_subgroupid>
dock_pv

> <b_m_subgroup_collapsed>
1

$$$$
CHEMBL1952_lig367
                    3D
 Schrodinger Suite 2021-1.
 40 43  0  0  1  0            999 V2000
   14.5965   16.1158   29.0591 N   0  0  0  0  0  0
   13.9424   17.1112   29.5340 C   0  0  0  0  0  0
   15.4124   15.6563   30.0862 C   0  0  0  0  0  0
   15.2168   16.4023   31.2119 C   0  0  0  0  0  0
   15.9054   16.2281   32.4230 C   0  0  0  0  0  0
   16.8801   15.1723   32.4802 C   0  0  0  0  0  0
   14.2614   17.3598   30.9502 C   0  0  0  0  0  0
   17.6140   14.9228   33.6684 N   0  0  0  0  0  0
   17.0741   14.3971   31.3101 C   0  0  0  0  0  0
   16.3523   14.6295   30.1260 C   0  0  0  0  0  0
   17.9437   13.5483   34.0793 C   0  0  0  0  0  0
   16.2422   11.0491   36.3829 N   0  0  0  0  0  0
   15.2543   11.7691   36.9424 N   0  0  0  0  0  0
   13.0594   17.8734   28.7938 N   0  0  0  0  0  0
   16.9919   12.9851   35.1385 C   0  0  0  0  0  0
   15.5389   17.1367   33.4509 C   0  0  0  0  0  0
   13.9148   18.2280   31.9902 C   0  0  0  0  0  0
   17.0976   11.6407   35.5074 C   0  0  0  0  0  0
   18.5956   15.9401   34.0267 C   0  0  0  0  0  0
   14.5550   18.1139   33.2319 C   0  0  0  0  0  0
   15.1239   13.0882   36.6417 C   0  0  0  0  0  0
   15.9759   13.7347   35.7479 C   0  0  0  0  0  0
   12.1955   18.9203   29.3186 C   0  0  0  0  0  0
   17.8162   13.6123   31.2915 H   0  0  0  0  0  0
   16.5395   14.0238   29.2510 H   0  0  0  0  0  0
   18.9562   13.5100   34.4855 H   0  0  0  0  0  0
   17.9483   12.8611   33.2349 H   0  0  0  0  0  0
   12.9391   17.6453   27.8170 H   0  0  0  0  0  0
   16.0428   17.0703   34.3921 H   0  0  0  0  0  0
   13.1764   19.0039   31.8580 H   0  0  0  0  0  0
   17.8611   11.0076   35.0786 H   0  0  0  0  0  0
   18.2235   16.9546   33.8905 H   0  0  0  0  0  0
   18.9030   15.8342   35.0677 H   0  0  0  0  0  0
   19.4769   15.8277   33.3983 H   0  0  0  0  0  0
   14.2905   18.7997   34.0249 H   0  0  0  0  0  0
   14.3236   13.6223   37.1321 H   0  0  0  0  0  0
   15.8315   14.7823   35.5288 H   0  0  0  0  0  0
   11.5872   19.3391   28.5175 H   0  0  0  0  0  0
   11.5213   18.5300   30.0825 H   0  0  0  0  0  0
   12.7811   19.7352   29.7448 H   0  0  0  0  0  0
  1  2  2  0  0  0
  1  3  1  0  0  0
  2  7  1  0  0  0
  2 14  1  0  0  0
  3  4  1  0  0  0
  3 10  2  0  0  0
  4  5  1  0  0  0
  4  7  2  0  0  0
  5 16  2  0  0  0
  5  6  1  0  0  0
  6  9  2  0  0  0
  6  8  1  0  0  0
  7 17  1  0  0  0
  8 11  1  0  0  0
  8 19  1  0  0  0
  9 10  1  0  0  0
  9 24  1  0  0  0
 10 25  1  0  0  0
 11 15  1  0  0  0
 11 26  1  0  0  0
 11 27  1  0  0  0
 12 18  2  0  0  0
 12 13  1  0  0  0
 13 21  2  0  0  0
 14 23  1  0  0  0
 14 28  1  0  0  0
 15 18  1  0  0  0
 15 22  2  0  0  0
 16 20  1  0  0  0
 16 29  1  0  0  0
 17 20  2  0  0  0
 17 30  1  0  0  0
 18 31  1  0  0  0
 19 32  1  0  0  0
 19 33  1  0  0  0
 19 34  1  0  0  0
 20 35  1  0  0  0
 21 22  1  0  0  0
 21 36  1  0  0  0
 22 37  1  0  0  0
 23 38  1  0  0  0
 23 39  1  0  0  0
 23 40  1  0  0  0
M  END
> <s_m_entry_id>
41052

> <s_m_entry_name>
dock_pv.169

> <s_m_Source_Path>
/home/csk/Desktop/cluster/DUD-E-result/tysy

> <s_m_Source_File>
dock_pv.maegz

> <i_m_Source_File_Index>
169

> <chembl_id>
CHEMBL417763

> <chembl_pref_name>
None

> <i_lp_mmshare_version>
53161

> <r_lp_tautomer_probability>
1

> <s_lp_Force_Field>
OPLS_2005

> <r_lp_Energy>
52.600079

> <b_lp_Chiralities_Consistent>
1

> <s_lp_Variant>
CHEMBL1952_lig367-1

> <s_i_glide_gridfile>
glide-grid_1syn

> <i_i_glide_lignum>
735

> <i_i_glide_rotatable_bonds>
4

> <r_i_docking_score>
-8.14747737369231

> <r_i_glide_ligand_efficiency>
-0.354238146682274

> <r_i_glide_ligand_efficiency_sa>
-1.00740616730063

> <r_i_glide_ligand_efficiency_ln>
-1.97013390619911

> <r_i_glide_gscore>
-8.14747737369231

> <r_i_glide_lipo>
-3.89759304262553

> <r_i_glide_hbond>
0

> <r_i_glide_metal>
0

> <r_i_glide_rewards>
-2.14040825041093

> <r_i_glide_evdw>
-44.3402709960938

> <r_i_glide_ecoul>
-3.28752756118774

> <r_i_glide_erotb>
0.600666603326994

> <r_i_glide_esite>
0

> <r_i_glide_emodel>
-66.1353834616655

> <r_i_glide_energy>
-47.6277985572815

> <r_i_glide_einternal>
9.08856964111328

> <i_i_glide_confnum>
10

> <i_i_glide_posenum>
171

> <r_i_glide_eff_state_penalty>
0

> <s_user_duplicate_titles>
CHEMBL1952_lig367,87473

> <i_f3d_flags>
0

> <s_m_subgroup_title>
dock_pv

> <s_m_subgroupid>
dock_pv

> <b_m_subgroup_collapsed>
1

$$$$
CHEMBL1952_lig200
                    3D
 Schrodinger Suite 2021-1.
 62 64  0  0  1  0            999 V2000
   12.9742   17.6971   30.8966 N   0  0  0  0  0  0
   13.1008   18.6280   31.8995 C   0  0  0  0  0  0
   14.0403   18.5182   32.7657 N   0  0  0  0  0  0
   13.7567   16.6090   30.6710 C   0  0  0  0  0  0
   12.1083   19.7960   31.9589 C   0  0  0  0  0  0
   13.5153   15.8372   29.7470 O   0  0  0  0  0  0
   14.8920   16.4935   31.6652 C   0  0  0  0  0  0
   14.9632   17.4684   32.6622 C   0  0  0  0  0  0
   15.9862   17.4280   33.5910 C   0  0  0  0  0  0
   16.9477   16.4200   33.5349 C   0  0  0  0  0  0
   16.8765   15.4143   32.5643 C   0  0  0  0  0  0
   15.8436   15.4599   31.6098 C   0  0  0  0  0  0
   17.9397   14.3042   32.5202 C   0  0  0  0  0  0
   18.5324   13.9662   33.8369 N   0  0  0  0  0  0
   17.7834   13.0657   34.6259 C   0  0  0  0  0  0
   18.1918   11.7363   34.7927 C   0  0  0  0  0  0
   17.4214   10.8503   35.5403 C   0  0  0  0  0  0
   16.2277   11.2735   36.1353 C   0  0  0  0  0  0
   15.8348   12.6120   35.9910 C   0  0  0  0  0  0
   16.6057   13.4942   35.2422 C   0  0  0  0  0  0
   15.3671   10.2818   36.8792 C   0  0  0  0  0  0
   15.3920    9.0828   36.5949 O   0  0  0  0  0  0
   14.5916   10.7990   37.8515 N   0  0  0  0  0  0
   13.5997   10.0993   38.6845 C   0  0  1  0  0  0
   12.4179    9.6213   37.7775 C   0  0  0  0  0  0
   14.2088    8.9944   39.5896 C   0  0  0  0  0  0
   13.2301    8.3436   40.2764 O   0  0  0  0  0  0
   15.3947    8.7688   39.7078 O   0  0  0  0  0  0
   11.0157    9.6099   38.4299 C   0  0  0  0  0  0
   10.5394   11.0041   38.8386 C   0  0  0  0  0  0
   10.0706   11.7284   37.7831 O   0  0  0  0  0  0
   10.5920   11.4281   39.9910 O   0  0  0  0  0  0
   19.9848   13.9853   34.1139 C   0  0  0  0  0  0
   11.3920   19.8280   33.1910 O   0  0  0  0  0  0
   20.9543   14.4521   33.0184 C   0  0  0  0  0  0
   22.3141   14.2280   33.3400 O   0  0  0  0  0  0
   12.2179   17.7984   30.2392 H   0  0  0  0  0  0
   12.6374   20.7415   31.8322 H   0  0  0  0  0  0
   11.3920   19.7315   31.1439 H   0  0  0  0  0  0
   16.0187   18.1917   34.3497 H   0  0  0  0  0  0
   17.7565   16.4083   34.2510 H   0  0  0  0  0  0
   15.7881   14.7031   30.8376 H   0  0  0  0  0  0
   18.6977   14.6180   31.8049 H   0  0  0  0  0  0
   17.4961   13.4040   32.0891 H   0  0  0  0  0  0
   19.0832   11.3660   34.3069 H   0  0  0  0  0  0
   17.7544    9.8280   35.6296 H   0  0  0  0  0  0
   14.9173   12.9832   36.4243 H   0  0  0  0  0  0
   16.2708   14.5133   35.1440 H   0  0  0  0  0  0
   14.7133   11.7781   38.0592 H   0  0  0  0  0  0
   13.2454   10.8723   39.3656 H   0  0  0  0  0  0
   12.6350    8.6251   37.3862 H   0  0  0  0  0  0
   12.3561   10.2442   36.8824 H   0  0  0  0  0  0
   13.6067    7.6390   40.8067 H   0  0  0  0  0  0
   11.0028    8.9690   39.3103 H   0  0  0  0  0  0
   10.2891    9.1758   37.7420 H   0  0  0  0  0  0
   10.1061   11.2535   36.9502 H   0  0  0  0  0  0
   20.1766   14.5924   34.9977 H   0  0  0  0  0  0
   20.3557   13.0280   34.4734 H   0  0  0  0  0  0
   11.9934   20.1667   33.8842 H   0  0  0  0  0  0
   20.7251   13.9019   32.1074 H   0  0  0  0  0  0
   20.6849   15.4280   32.6529 H   0  0  0  0  0  0
   22.4333   13.2695   33.2301 H   0  0  0  0  0  0
  1  2  1  0  0  0
  1  4  1  0  0  0
  1 37  1  0  0  0
  2  5  1  0  0  0
  2  3  2  0  0  0
  3  8  1  0  0  0
  4  7  1  0  0  0
  4  6  2  0  0  0
  5 34  1  0  0  0
  5 38  1  0  0  0
  5 39  1  0  0  0
  7 12  1  0  0  0
  7  8  2  0  0  0
  8  9  1  0  0  0
  9 10  2  0  0  0
  9 40  1  0  0  0
 10 11  1  0  0  0
 10 41  1  0  0  0
 11 12  2  0  0  0
 11 13  1  0  0  0
 12 42  1  0  0  0
 13 14  1  0  0  0
 13 43  1  0  0  0
 13 44  1  0  0  0
 14 15  1  0  0  0
 14 33  1  0  0  0
 15 20  1  0  0  0
 15 16  2  0  0  0
 16 17  1  0  0  0
 16 45  1  0  0  0
 17 18  2  0  0  0
 17 46  1  0  0  0
 18 19  1  0  0  0
 18 21  1  0  0  0
 19 20  2  0  0  0
 19 47  1  0  0  0
 20 48  1  0  0  0
 21 22  2  0  0  0
 21 23  1  0  0  0
 23 24  1  0  0  0
 23 49  1  0  0  0
 24 25  1  0  0  0
 24 26  1  0  0  0
 24 50  1  0  0  0
 25 29  1  0  0  0
 25 51  1  0  0  0
 25 52  1  0  0  0
 26 27  1  0  0  0
 26 28  2  0  0  0
 27 53  1  0  0  0
 29 30  1  0  0  0
 29 54  1  0  0  0
 29 55  1  0  0  0
 30 31  1  0  0  0
 30 32  2  0  0  0
 31 56  1  0  0  0
 33 35  1  0  0  0
 33 57  1  0  0  0
 33 58  1  0  0  0
 34 59  1  0  0  0
 35 36  1  0  0  0
 35 60  1  0  0  0
 35 61  1  0  0  0
 36 62  1  0  0  0
M  END
> <s_m_entry_id>
41053

> <s_m_entry_name>
dock_pv.170

> <s_m_Source_Path>
/home/csk/Desktop/cluster/DUD-E-result/tysy

> <s_m_Source_File>
dock_pv.maegz

> <i_m_Source_File_Index>
170

> <chembl_id>
CHEMBL105519

> <chembl_pref_name>
None

> <i_lp_mmshare_version>
53161

> <r_lp_tautomer_probability>
0.883938

> <s_lp_Force_Field>
OPLS_2005

> <r_lp_Energy>
27.436131

> <b_lp_Chiralities_Consistent>
1

> <s_lp_Variant>
CHEMBL1952_lig200-1

> <s_i_glide_gridfile>
glide-grid_1syn

> <i_i_glide_lignum>
397

> <i_i_glide_rotatable_bonds>
17

> <r_i_docking_score>
-8.14657695276373

> <r_i_glide_ligand_efficiency>
-0.226293804243437

> <r_i_glide_ligand_efficiency_sa>
-0.747205677594889

> <r_i_glide_ligand_efficiency_ln>
-1.7773629960189

> <r_i_glide_gscore>
-8.14657695276373

> <r_i_glide_lipo>
-3.51445243639813

> <r_i_glide_hbond>
-0.645908696111544

> <r_i_glide_metal>
0

> <r_i_glide_rewards>
0.381659018039549

> <r_i_glide_evdw>
-48.7633895874023

> <r_i_glide_ecoul>
-19.7501029968262

> <r_i_glide_erotb>
1.06758801334196

> <r_i_glide_esite>
-0.0347779227415224

> <r_i_glide_emodel>
-88.5416514982666

> <r_i_glide_energy>
-68.5134925842285

> <r_i_glide_einternal>
20.8981380462646

> <i_i_glide_confnum>
6

> <i_i_glide_posenum>
35

> <r_i_glide_eff_state_penalty>
0

> <s_user_duplicate_titles>
CHEMBL1952_lig200,CHEMBL1952_lig200,170829

> <i_f3d_flags>
0

> <s_m_subgroup_title>
dock_pv

> <s_m_subgroupid>
dock_pv

> <b_m_subgroup_collapsed>
1

$$$$
CHEMBL1952_lig229
                    3D
 Schrodinger Suite 2021-1.
 59 61  0  0  1  0            999 V2000
   13.1470   18.2570   31.6222 N   0  0  0  0  0  0
   13.2656   17.7972   30.4368 C   0  0  0  0  0  0
   14.1925   16.8448   30.0509 N   0  0  0  0  0  0
   13.9786   17.8452   32.6692 C   0  0  0  0  0  0
   13.9041   18.2281   33.8345 O   0  0  0  0  0  0
   15.0424   16.8249   32.2945 C   0  0  0  0  0  0
   15.1051   16.3381   30.9831 C   0  0  0  0  0  0
   16.0676   15.3980   30.6268 C   0  0  0  0  0  0
   16.9771   14.9422   31.5860 C   0  0  0  0  0  0
   16.9257   15.4303   32.8993 C   0  0  0  0  0  0
   15.9598   16.3760   33.2501 C   0  0  0  0  0  0
   17.9490   14.9744   33.9321 C   0  0  0  0  0  0
   17.6955   13.6021   34.3993 N   0  0  0  0  0  0
   16.5924   13.3146   35.2640 C   0  0  0  0  0  0
   15.9754   14.3180   36.0196 C   0  0  0  0  0  0
   14.9921   14.0184   36.9591 C   0  0  0  0  0  0
   14.5927   12.6939   37.1970 C   0  0  0  0  0  0
   15.1166   11.6900   36.3627 C   0  0  0  0  0  0
   16.0867   12.0143   35.4196 C   0  0  0  0  0  0
   13.7215   12.3716   38.3907 C   0  0  0  0  0  0
   13.8462   11.3109   39.0025 O   0  0  0  0  0  0
   12.8855   13.3446   38.7974 N   0  0  0  0  0  0
   12.1162   13.3534   40.0506 C   0  0  1  0  0  0
   11.0873   12.1884   40.1221 C   0  0  0  0  0  0
   13.0200   13.4760   41.3007 C   0  0  0  0  0  0
   13.7921   14.5956   41.1912 O   0  0  0  0  0  0
   12.9908   12.7244   42.2534 O   0  0  0  0  0  0
   10.0101   12.1959   39.0114 C   0  0  0  0  0  0
    9.1130   13.4349   39.0414 C   0  0  0  0  0  0
    8.4169   13.6125   37.8876 O   0  0  0  0  0  0
    9.0392   14.2135   39.9912 O   0  0  0  0  0  0
   12.3099   18.2976   29.3794 C   0  0  0  0  0  0
   18.6095   12.5743   33.8551 C   0  0  0  0  0  0
   14.6269   10.0273   36.4387 Cl  0  0  0  0  0  0
   18.9920   11.5008   34.7912 C   0  0  0  0  0  0
   19.2347   10.6117   35.5900 C   0  0  0  0  0  0
   14.2273   16.5261   29.0972 H   0  0  0  0  0  0
   16.1188   15.0197   29.6172 H   0  0  0  0  0  0
   17.7273   14.2137   31.3083 H   0  0  0  0  0  0
   15.9231   16.7616   34.2595 H   0  0  0  0  0  0
   18.9294   15.0445   33.4560 H   0  0  0  0  0  0
   18.0090   15.6689   34.7698 H   0  0  0  0  0  0
   16.2935   15.3453   35.9567 H   0  0  0  0  0  0
   14.6182   14.8361   37.5589 H   0  0  0  0  0  0
   16.4460   11.2133   34.7956 H   0  0  0  0  0  0
   12.7455   14.1305   38.1802 H   0  0  0  0  0  0
   11.5507   14.2787   40.0519 H   0  0  0  0  0  0
   11.5943   11.2229   40.1040 H   0  0  0  0  0  0
   10.5920   12.2263   41.0887 H   0  0  0  0  0  0
   13.7269   14.9711   40.3104 H   0  0  0  0  0  0
   10.4841   12.1268   38.0318 H   0  0  0  0  0  0
    9.3725   11.3172   39.1065 H   0  0  0  0  0  0
    7.9120   14.4321   37.9381 H   0  0  0  0  0  0
   11.8100   19.2182   29.6847 H   0  0  0  0  0  0
   12.8233   18.5065   28.4413 H   0  0  0  0  0  0
   11.5344   17.5563   29.1911 H   0  0  0  0  0  0
   18.1923   12.1079   32.9642 H   0  0  0  0  0  0
   19.5537   13.0251   33.5478 H   0  0  0  0  0  0
   19.3921    9.8287   36.2943 H   0  0  0  0  0  0
  1  2  2  0  0  0
  1  4  1  0  0  0
  2  3  1  0  0  0
  2 32  1  0  0  0
  3  7  1  0  0  0
  3 37  1  0  0  0
  4  5  2  0  0  0
  4  6  1  0  0  0
  6 11  1  0  0  0
  6  7  2  0  0  0
  7  8  1  0  0  0
  8  9  2  0  0  0
  8 38  1  0  0  0
  9 10  1  0  0  0
  9 39  1  0  0  0
 10 11  2  0  0  0
 10 12  1  0  0  0
 11 40  1  0  0  0
 12 13  1  0  0  0
 12 41  1  0  0  0
 12 42  1  0  0  0
 13 14  1  0  0  0
 13 33  1  0  0  0
 14 19  1  0  0  0
 14 15  2  0  0  0
 15 16  1  0  0  0
 15 43  1  0  0  0
 16 17  2  0  0  0
 16 44  1  0  0  0
 17 18  1  0  0  0
 17 20  1  0  0  0
 18 19  2  0  0  0
 18 34  1  0  0  0
 19 45  1  0  0  0
 20 21  2  0  0  0
 20 22  1  0  0  0
 22 23  1  0  0  0
 22 46  1  0  0  0
 23 24  1  0  0  0
 23 25  1  0  0  0
 23 47  1  0  0  0
 24 28  1  0  0  0
 24 48  1  0  0  0
 24 49  1  0  0  0
 25 26  1  0  0  0
 25 27  2  0  0  0
 26 50  1  0  0  0
 28 29  1  0  0  0
 28 51  1  0  0  0
 28 52  1  0  0  0
 29 30  1  0  0  0
 29 31  2  0  0  0
 30 53  1  0  0  0
 32 54  1  0  0  0
 32 55  1  0  0  0
 32 56  1  0  0  0
 33 35  1  0  0  0
 33 57  1  0  0  0
 33 58  1  0  0  0
 35 36  3  0  0  0
 36 59  1  0  0  0
M  END
> <s_m_entry_id>
41054

> <s_m_entry_name>
dock_pv.171

> <s_m_Source_Path>
/home/csk/Desktop/cluster/DUD-E-result/tysy

> <s_m_Source_File>
dock_pv.maegz

> <i_m_Source_File_Index>
171

> <chembl_id>
CHEMBL323375

> <chembl_pref_name>
None

> <i_lp_mmshare_version>
53161

> <r_lp_tautomer_probability>
0.116051

> <s_lp_Force_Field>
OPLS_2005

> <r_lp_Energy>
20.557128

> <b_lp_Chiralities_Consistent>
1

> <s_lp_Variant>
CHEMBL1952_lig229-2

> <s_i_glide_gridfile>
glide-grid_1syn

> <i_i_glide_lignum>
455

> <i_i_glide_rotatable_bonds>
14

> <r_i_docking_score>
-8.13997168346598

> <r_i_glide_ligand_efficiency>
-0.226110324540722

> <r_i_glide_ligand_efficiency_sa>
-0.746599840965598

> <r_i_glide_ligand_efficiency_ln>
-1.77592190471189

> <r_i_glide_gscore>
-8.13997168346598

> <r_i_glide_lipo>
-3.58364814096897

> <r_i_glide_hbond>
-0.331783724320573

> <r_i_glide_metal>
0

> <r_i_glide_rewards>
-0.972552981719012

> <r_i_glide_evdw>
-59.2412452697754

> <r_i_glide_ecoul>
-7.82632160186768

> <r_i_glide_erotb>
0.941891086897162

> <r_i_glide_esite>
-0.0578674195856618

> <r_i_glide_emodel>
-98.5296301433074

> <r_i_glide_energy>
-67.0675668716431

> <r_i_glide_einternal>
6.8020076751709

> <i_i_glide_confnum>
194

> <i_i_glide_posenum>
159

> <r_i_glide_eff_state_penalty>
0

> <s_user_duplicate_titles>
CHEMBL1952_lig229,171799

> <i_f3d_flags>
0

> <s_m_subgroup_title>
dock_pv

> <s_m_subgroupid>
dock_pv

> <b_m_subgroup_collapsed>
1

$$$$
CHEMBL1952_lig132
                    3D
 Schrodinger Suite 2021-1.
 40 43  0  0  1  0            999 V2000
   18.8167   12.9697   34.6475 N   0  0  0  0  0  0
   18.4597   11.7251   35.0286 C   0  0  0  0  0  0
   17.2930   11.3381   35.5913 N   0  0  0  0  0  0
   17.9161   13.9699   34.7911 C   0  0  0  0  0  0
   18.1994   15.2553   34.4313 O   0  0  0  0  0  0
   15.3895   14.3956   35.5350 C   0  0  0  0  0  0
   16.6310   13.6917   35.3048 C   0  0  0  0  0  0
   16.4239   12.3442   35.7050 C   0  0  0  0  0  0
   15.1652   12.2667   36.2378 N   0  0  0  0  0  0
   14.5407   13.4887   36.1635 C   0  0  0  0  0  0
   13.1451   13.6534   36.7287 C   0  0  0  0  0  0
   19.3917   10.7351   34.7927 N   0  0  0  0  0  0
   13.1526   13.7268   38.2623 C   0  0  0  0  0  0
   14.9919   16.0792   35.1887 S   0  0  0  0  0  0
   14.8829   16.2402   33.4215 C   0  0  0  0  0  0
   15.6025   15.4372   32.5334 C   0  0  0  0  0  0
   15.4995   15.6262   31.1572 C   0  0  0  0  0  0
   14.0513   17.2457   32.9276 C   0  0  0  0  0  0
   13.9070   17.4503   31.5344 C   0  0  0  0  0  0
   14.6488   16.6278   30.6335 C   0  0  0  0  0  0
   14.5147   16.8346   29.2395 C   0  0  0  0  0  0
   13.6718   17.8313   28.7576 C   0  0  0  0  0  0
   12.9367   18.6248   29.6324 C   0  0  0  0  0  0
   13.0445   18.4461   31.0094 C   0  0  0  0  0  0
   19.0773   15.2922   34.0462 H   0  0  0  0  0  0
   14.7239   11.4531   36.6356 H   0  0  0  0  0  0
   12.6818   14.5589   36.3339 H   0  0  0  0  0  0
   12.4989   12.8369   36.4048 H   0  0  0  0  0  0
   19.1160    9.7735   34.8998 H   0  0  0  0  0  0
   20.1685   11.0010   34.1863 H   0  0  0  0  0  0
   12.1418   13.8535   38.6500 H   0  0  0  0  0  0
   13.5693   12.8214   38.7045 H   0  0  0  0  0  0
   13.7511   14.5700   38.6106 H   0  0  0  0  0  0
   16.2462   14.6516   32.8850 H   0  0  0  0  0  0
   16.0632   14.9983   30.4819 H   0  0  0  0  0  0
   13.4977   17.8768   33.6091 H   0  0  0  0  0  0
   15.0694   16.2123   28.5524 H   0  0  0  0  0  0
   13.5736   17.9822   27.6926 H   0  0  0  0  0  0
   12.2762   19.3856   29.2397 H   0  0  0  0  0  0
   12.4758   19.0715   31.6831 H   0  0  0  0  0  0
  1  2  2  0  0  0
  1  4  1  0  0  0
  2  3  1  0  0  0
  2 12  1  0  0  0
  3  8  2  0  0  0
  4  5  1  0  0  0
  4  7  2  0  0  0
  5 25  1  0  0  0
  6  7  1  0  0  0
  6 10  2  0  0  0
  6 14  1  0  0  0
  7  8  1  0  0  0
  8  9  1  0  0  0
  9 10  1  0  0  0
  9 26  1  0  0  0
 10 11  1  0  0  0
 11 13  1  0  0  0
 11 27  1  0  0  0
 11 28  1  0  0  0
 12 29  1  0  0  0
 12 30  1  0  0  0
 13 31  1  0  0  0
 13 32  1  0  0  0
 13 33  1  0  0  0
 14 15  1  0  0  0
 15 16  2  0  0  0
 15 18  1  0  0  0
 16 17  1  0  0  0
 16 34  1  0  0  0
 17 20  2  0  0  0
 17 35  1  0  0  0
 18 19  2  0  0  0
 18 36  1  0  0  0
 19 20  1  0  0  0
 19 24  1  0  0  0
 20 21  1  0  0  0
 21 22  2  0  0  0
 21 37  1  0  0  0
 22 23  1  0  0  0
 22 38  1  0  0  0
 23 24  2  0  0  0
 23 39  1  0  0  0
 24 40  1  0  0  0
M  END
> <s_m_entry_id>
41055

> <s_m_entry_name>
dock_pv.172

> <s_m_Source_Path>
/home/csk/Desktop/cluster/DUD-E-result/tysy

> <s_m_Source_File>
dock_pv.maegz

> <i_m_Source_File_Index>
172

> <chembl_id>
CHEMBL202337

> <chembl_pref_name>
None

> <i_lp_mmshare_version>
53161

> <r_lp_tautomer_probability>
1

> <s_lp_Force_Field>
OPLS_2005

> <r_lp_Energy>
5.729142

> <b_lp_Chiralities_Consistent>
1

> <s_lp_Variant>
CHEMBL1952_lig132-1

> <s_i_glide_gridfile>
glide-grid_1syn

> <i_i_glide_lignum>
309

> <i_i_glide_rotatable_bonds>
4

> <r_i_docking_score>
-8.13706685607448

> <r_i_glide_ligand_efficiency>
-0.339044452336437

> <r_i_glide_ligand_efficiency_sa>
-0.977973430358655

> <r_i_glide_ligand_efficiency_ln>
-1.94757348432651

> <r_i_glide_gscore>
-8.13706685607448

> <r_i_glide_lipo>
-3.96155483058028

> <r_i_glide_hbond>
-0.16

> <r_i_glide_metal>
0

> <r_i_glide_rewards>
-1.61631929736344

> <r_i_glide_evdw>
-43.0857582092285

> <r_i_glide_ecoul>
-3.01452612876892

> <r_i_glide_erotb>
0.333755386108546

> <r_i_glide_esite>
-0.126481284462545

> <r_i_glide_emodel>
-68.7047506393337

> <r_i_glide_energy>
-46.1002843379974

> <r_i_glide_einternal>
1.36636865139008

> <i_i_glide_confnum>
5

> <i_i_glide_posenum>
13

> <r_i_glide_eff_state_penalty>
0

> <s_user_duplicate_titles>
CHEMBL1952_lig132,337249

> <i_f3d_flags>
0

> <s_m_subgroup_title>
dock_pv

> <s_m_subgroupid>
dock_pv

> <b_m_subgroup_collapsed>
1

$$$$
CHEMBL1952_lig124
                    3D
 Schrodinger Suite 2021-1.
 33 35  0  0  1  0            999 V2000
   14.9643   16.7071   31.7921 C   0  0  0  0  0  0
   14.5550   16.2486   30.5107 C   0  0  0  0  0  0
   13.5334   16.7153   29.7944 N   0  0  0  0  0  0
   16.1185   15.9210   32.1647 C   0  0  0  0  0  0
   14.1910   17.7631   32.3295 C   0  0  0  0  0  0
   13.1398   18.2550   31.6258 N   0  0  0  0  0  0
   12.8729   17.7165   30.4152 C   0  0  0  0  0  0
   15.4091   15.2422   30.1398 N   0  0  0  0  0  0
   17.3510   11.3094   35.6653 N   0  3  0  0  0  0
   16.6240   12.5993   35.5907 C   0  0  0  0  0  0
   16.3420   15.0279   31.1243 C   0  0  0  0  0  0
   17.1304   16.0941   33.5910 S   0  0  0  0  0  0
   17.1487   13.6281   34.7906 C   0  0  0  0  0  0
   15.4311   12.8434   36.3018 C   0  0  0  0  0  0
   18.5758   11.3313   35.5907 O   0  5  0  0  0  0
   14.5401   18.2557   33.5559 O   0  0  0  0  0  0
   16.4670   14.8355   34.6336 C   0  0  0  0  0  0
   16.7078   10.2674   35.7586 O   0  0  0  0  0  0
   11.7921   18.2333   29.7293 N   0  0  0  0  0  0
   14.7664   14.0628   36.1547 C   0  0  0  0  0  0
   15.2727   15.0523   35.3159 C   0  0  0  0  0  0
   14.7447   11.6884   37.3944 Cl  0  0  0  0  0  0
   17.3919   13.9605   30.9463 C   0  0  0  0  0  0
   15.3839   14.7059   29.2854 H   0  0  0  0  0  0
   18.0777   13.4778   34.2568 H   0  0  0  0  0  0
   13.9619   18.9873   33.7969 H   0  0  0  0  0  0
   11.6196   17.9176   28.7907 H   0  0  0  0  0  0
   11.2112   18.9511   30.1503 H   0  0  0  0  0  0
   13.8499   14.2461   36.6955 H   0  0  0  0  0  0
   14.7483   15.9908   35.2102 H   0  0  0  0  0  0
   17.7747   13.5970   31.8980 H   0  0  0  0  0  0
   17.0115   13.0879   30.4136 H   0  0  0  0  0  0
   18.2478   14.3366   30.3911 H   0  0  0  0  0  0
  1  2  1  0  0  0
  1  4  1  0  0  0
  1  5  2  0  0  0
  2  3  2  0  0  0
  2  8  1  0  0  0
  3  7  1  0  0  0
  4 11  2  0  0  0
  4 12  1  0  0  0
  5  6  1  0  0  0
  5 16  1  0  0  0
  6  7  2  0  0  0
  7 19  1  0  0  0
  8 11  1  0  0  0
  8 24  1  0  0  0
  9 10  1  0  0  0
  9 15  1  0  0  0
  9 18  2  0  0  0
 10 13  1  0  0  0
 10 14  2  0  0  0
 11 23  1  0  0  0
 12 17  1  0  0  0
 13 17  2  0  0  0
 13 25  1  0  0  0
 14 20  1  0  0  0
 14 22  1  0  0  0
 16 26  1  0  0  0
 17 21  1  0  0  0
 19 27  1  0  0  0
 19 28  1  0  0  0
 20 21  2  0  0  0
 20 29  1  0  0  0
 21 30  1  0  0  0
 23 31  1  0  0  0
 23 32  1  0  0  0
 23 33  1  0  0  0
M  CHG  2   9   1  15  -1
M  END
> <s_m_entry_id>
41056

> <s_m_entry_name>
dock_pv.173

> <s_m_Source_Path>
/home/csk/Desktop/cluster/DUD-E-result/tysy

> <s_m_Source_File>
dock_pv.maegz

> <i_m_Source_File_Index>
173

> <chembl_id>
CHEMBL371698

> <chembl_pref_name>
None

> <i_lp_mmshare_version>
53161

> <r_lp_tautomer_probability>
1

> <s_lp_Force_Field>
OPLS_2005

> <r_lp_Energy>
7.320217

> <b_lp_Chiralities_Consistent>
1

> <s_lp_Variant>
CHEMBL1952_lig124-1

> <s_i_glide_gridfile>
glide-grid_1syn

> <i_i_glide_lignum>
301

> <i_i_glide_rotatable_bonds>
4

> <r_i_docking_score>
-8.1363930131221

> <r_i_glide_ligand_efficiency>
-0.35375621796183

> <r_i_glide_ligand_efficiency_sa>
-1.00603562612735

> <r_i_glide_ligand_efficiency_ln>
-1.9674536073058

> <r_i_glide_gscore>
-8.1363930131221

> <r_i_glide_lipo>
-3.0173575636948

> <r_i_glide_hbond>
-0.295868164286903

> <r_i_glide_metal>
0

> <r_i_glide_rewards>
-1.98214377985643

> <r_i_glide_evdw>
-44.6977500915527

> <r_i_glide_ecoul>
-5.7773380279541

> <r_i_glide_erotb>
0.308334633096649

> <r_i_glide_esite>
-0.0478699296098546

> <r_i_glide_emodel>
-76.0294260421885

> <r_i_glide_energy>
-50.4750881195068

> <r_i_glide_einternal>
2.7224395275116

> <i_i_glide_confnum>
9

> <i_i_glide_posenum>
31

> <r_i_glide_eff_state_penalty>
0

> <s_user_duplicate_titles>
CHEMBL1952_lig124,324967

> <i_f3d_flags>
0

> <s_m_subgroup_title>
dock_pv

> <s_m_subgroupid>
dock_pv

> <b_m_subgroup_collapsed>
1

$$$$
CHEMBL1952_lig49
                    3D
 Schrodinger Suite 2021-1.
 26 28  0  0  1  0            999 V2000
   15.9062   16.6055   33.1780 C   0  0  0  0  0  0
   15.4659   16.4202   31.8103 C   0  0  0  0  0  0
   16.8656   15.8262   33.7313 N   0  0  0  0  0  0
   17.4387   14.8907   32.9565 C   0  0  0  0  0  0
   17.1544   14.6426   31.6682 N   0  0  0  0  0  0
   16.1864   15.4049   31.0966 C   0  0  0  0  0  0
   14.4409   17.1496   31.1113 C   0  0  0  0  0  0
   15.3917   17.6334   33.9163 O   0  0  0  0  0  0
   14.2595   16.9189   29.7067 C   0  0  0  0  0  0
   13.5542   18.0976   31.7214 C   0  0  0  0  0  0
   15.9255   15.1554   29.7404 C   0  0  0  0  0  0
   18.4344   14.1216   33.5343 N   0  0  0  0  0  0
   14.9964   15.9126   29.0549 C   0  0  0  0  0  0
   13.3305   17.6909   28.9694 C   0  0  0  0  0  0
   12.6285   18.8123   30.9701 C   0  0  0  0  0  0
   12.5275   18.6263   29.6018 C   0  0  0  0  0  0
   11.7921   19.6940   31.5910 O   0  0  0  0  0  0
   14.8990   18.2530   33.3788 H   0  0  0  0  0  0
   13.5086   18.2736   32.7792 H   0  0  0  0  0  0
   16.4765   14.3800   29.2251 H   0  0  0  0  0  0
   18.9535   13.4784   32.9491 H   0  0  0  0  0  0
   18.7286   14.3449   34.4704 H   0  0  0  0  0  0
   14.8285   15.7242   28.0032 H   0  0  0  0  0  0
   13.2299   17.5307   27.9054 H   0  0  0  0  0  0
   11.8048   19.1891   29.0265 H   0  0  0  0  0  0
   11.0342   19.9020   31.0278 H   0  0  0  0  0  0
  1  2  1  0  0  0
  1  3  2  0  0  0
  1  8  1  0  0  0
  2  6  2  0  0  0
  2  7  1  0  0  0
  3  4  1  0  0  0
  4  5  2  0  0  0
  4 12  1  0  0  0
  5  6  1  0  0  0
  6 11  1  0  0  0
  7  9  2  0  0  0
  7 10  1  0  0  0
  8 18  1  0  0  0
  9 13  1  0  0  0
  9 14  1  0  0  0
 10 15  2  0  0  0
 10 19  1  0  0  0
 11 13  2  0  0  0
 11 20  1  0  0  0
 12 21  1  0  0  0
 12 22  1  0  0  0
 13 23  1  0  0  0
 14 16  2  0  0  0
 14 24  1  0  0  0
 15 16  1  0  0  0
 15 17  1  0  0  0
 16 25  1  0  0  0
 17 26  1  0  0  0
M  END
> <s_m_entry_id>
41057

> <s_m_entry_name>
dock_pv.174

> <s_m_Source_Path>
/home/csk/Desktop/cluster/DUD-E-result/tysy

> <s_m_Source_File>
dock_pv.maegz

> <i_m_Source_File_Index>
174

> <chembl_id>
CHEMBL306790

> <chembl_pref_name>
None

> <i_lp_mmshare_version>
53161

> <r_lp_tautomer_probability>
1

> <s_lp_Force_Field>
OPLS_2005

> <r_lp_Energy>
14.207127

> <b_lp_Chiralities_Consistent>
1

> <s_lp_Variant>
CHEMBL1952_lig49-1

> <s_i_glide_gridfile>
glide-grid_1syn

> <i_i_glide_lignum>
67

> <i_i_glide_rotatable_bonds>
2

> <r_i_docking_score>
-8.13347372099637

> <r_i_glide_ligand_efficiency>
-0.478439630646845

> <r_i_glide_ligand_efficiency_sa>
-1.23020301336175

> <r_i_glide_ligand_efficiency_ln>
-2.12184217025336

> <r_i_glide_gscore>
-8.13347372099637

> <r_i_glide_lipo>
-2.8015374926439

> <r_i_glide_hbond>
-0.32

> <r_i_glide_metal>
0

> <r_i_glide_rewards>
-2.28334304085195

> <r_i_glide_evdw>
-34.6070213317871

> <r_i_glide_ecoul>
-6.52044296264648

> <r_i_glide_erotb>
0

> <r_i_glide_esite>
-0.0201756765141864

> <r_i_glide_emodel>
-61.3406080363954

> <r_i_glide_energy>
-41.1274642944336

> <r_i_glide_einternal>
1.59348583221436

> <i_i_glide_confnum>
1

> <i_i_glide_posenum>
154

> <r_i_glide_eff_state_penalty>
0

> <s_user_duplicate_titles>
CHEMBL1952_lig49

> <i_f3d_flags>
0

> <s_m_subgroup_title>
dock_pv

> <s_m_subgroupid>
dock_pv

> <b_m_subgroup_collapsed>
1

$$$$
CHEMBL1952_lig391
                    3D
 Schrodinger Suite 2021-1.
 56 60  0  0  1  0            999 V2000
   13.4447   12.0029   37.8984 S   0  0  0  0  0  0
   13.4709   19.0282   32.8093 N   0  0  0  0  0  0
   12.6477   19.4000   31.7944 C   0  0  0  0  0  0
   16.6028   15.2006   32.7962 N   0  0  0  0  0  0
   15.6984   16.0985   32.1993 C   0  0  0  0  0  0
   12.5392   11.0227   36.7384 N   0  0  0  0  0  0
   14.2054   17.9597   32.3665 C   0  0  0  0  0  0
   12.7758   18.6720   30.7165 N   0  0  0  0  0  0
   15.1817   17.1620   32.9571 C   0  0  0  0  0  0
   13.7573   17.7684   31.0442 C   0  0  0  0  0  0
   15.2962   15.9150   30.8464 C   0  0  0  0  0  0
   14.5532   12.9575   36.8628 C   0  0  0  0  0  0
   14.3282   16.7520   30.2740 C   0  0  0  0  0  0
   14.2633   11.0922   38.7064 O   0  0  0  0  0  0
   12.5099   12.9345   38.5433 O   0  0  0  0  0  0
   17.0982   15.1987   34.1794 C   0  0  0  0  0  0
   10.7459    9.4281   35.1913 N   0  0  0  0  0  0
   11.7921   20.4323   31.9785 N   0  0  0  0  0  0
   15.7697   12.4193   36.4385 C   0  0  0  0  0  0
   14.1625   14.2240   36.4333 C   0  0  0  0  0  0
   12.3031    9.6063   37.0975 C   0  0  0  0  0  0
   11.3405   11.6406   36.1253 C   0  0  0  0  0  0
   16.2031   14.4243   35.1512 C   0  0  0  0  0  0
   17.3070   14.1843   32.0034 C   0  0  0  0  0  0
   16.5943   13.1551   35.5902 C   0  0  0  0  0  0
   14.9868   14.9580   35.5912 C   0  0  0  0  0  0
   15.9302   14.8257   29.9839 C   0  0  0  0  0  0
   10.9560   10.8419   34.8566 C   0  0  0  0  0  0
   11.9290    8.8275   35.8215 C   0  0  0  0  0  0
   17.3351   14.5215   30.5136 C   0  0  0  0  0  0
   13.4641   19.5041   33.7059 H   0  0  0  0  0  0
   15.4981   17.3631   33.9659 H   0  0  0  0  0  0
   14.0165   16.6108   29.2501 H   0  0  0  0  0  0
   18.1101   14.7913   34.2424 H   0  0  0  0  0  0
   17.2258   16.2279   34.4800 H   0  0  0  0  0  0
   10.5426    8.8976   34.3494 H   0  0  0  0  0  0
   11.0609   20.6045   31.2967 H   0  0  0  0  0  0
   11.7912   20.9731   32.8344 H   0  0  0  0  0  0
   16.0749   11.4334   36.7587 H   0  0  0  0  0  0
   13.2126   14.6269   36.7452 H   0  0  0  0  0  0
   13.2214    9.1803   37.5045 H   0  0  0  0  0  0
   11.4767    9.5259   37.8066 H   0  0  0  0  0  0
   10.5015   11.5964   36.8210 H   0  0  0  0  0  0
   11.5680   12.6717   35.8595 H   0  0  0  0  0  0
   16.5946   13.3591   31.9908 H   0  0  0  0  0  0
   18.2302   13.7690   32.4135 H   0  0  0  0  0  0
   17.5289   12.7282   35.2568 H   0  0  0  0  0  0
   14.6541   15.9323   35.2808 H   0  0  0  0  0  0
   15.3161   13.9268   29.9909 H   0  0  0  0  0  0
   15.9897   15.1414   28.9415 H   0  0  0  0  0  0
   10.0854   11.2585   34.3463 H   0  0  0  0  0  0
   11.7874   10.8408   34.1499 H   0  0  0  0  0  0
   11.7765    7.7639   36.0029 H   0  0  0  0  0  0
   12.7214    8.9207   35.0755 H   0  0  0  0  0  0
   17.7781   13.6837   29.9956 H   0  0  0  0  0  0
   17.9963   15.3716   30.3452 H   0  0  0  0  0  0
  1  6  1  0  0  0
  1 12  1  0  0  0
  1 14  2  0  0  0
  1 15  2  0  0  0
  2  7  1  0  0  0
  2  3  1  0  0  0
  2 31  1  0  0  0
  3 18  1  0  0  0
  3  8  2  0  0  0
  4 16  1  0  0  0
  4  5  1  0  0  0
  4 24  1  0  0  0
  5  9  2  0  0  0
  5 11  1  0  0  0
  6 21  1  0  0  0
  6 22  1  0  0  0
  7  9  1  0  0  0
  7 10  2  0  0  0
  8 10  1  0  0  0
  9 32  1  0  0  0
 10 13  1  0  0  0
 11 13  2  0  0  0
 11 27  1  0  0  0
 12 19  2  0  0  0
 12 20  1  0  0  0
 13 33  1  0  0  0
 16 23  1  0  0  0
 16 34  1  0  0  0
 16 35  1  0  0  0
 17 28  1  0  0  0
 17 29  1  0  0  0
 17 36  1  0  0  0
 18 37  1  0  0  0
 18 38  1  0  0  0
 19 25  1  0  0  0
 19 39  1  0  0  0
 20 26  2  0  0  0
 20 40  1  0  0  0
 21 29  1  0  0  0
 21 41  1  0  0  0
 21 42  1  0  0  0
 22 28  1  0  0  0
 22 43  1  0  0  0
 22 44  1  0  0  0
 23 26  1  0  0  0
 23 25  2  0  0  0
 24 30  1  0  0  0
 24 45  1  0  0  0
 24 46  1  0  0  0
 25 47  1  0  0  0
 26 48  1  0  0  0
 27 30  1  0  0  0
 27 49  1  0  0  0
 27 50  1  0  0  0
 28 51  1  0  0  0
 28 52  1  0  0  0
 29 53  1  0  0  0
 29 54  1  0  0  0
 30 55  1  0  0  0
 30 56  1  0  0  0
M  END
> <s_m_entry_id>
41058

> <s_m_entry_name>
dock_pv.175

> <s_m_Source_Path>
/home/csk/Desktop/cluster/DUD-E-result/tysy

> <s_m_Source_File>
dock_pv.maegz

> <i_m_Source_File_Index>
175

> <chembl_id>
CHEMBL56662

> <chembl_pref_name>
None

> <i_lp_mmshare_version>
53161

> <r_lp_tautomer_probability>
1

> <s_lp_Force_Field>
OPLS_2005

> <r_lp_Energy>
6.765999

> <b_lp_Chiralities_Consistent>
1

> <s_lp_Variant>
CHEMBL1952_lig391-1

> <s_i_glide_gridfile>
glide-grid_1syn

> <i_i_glide_lignum>
774

> <i_i_glide_rotatable_bonds>
4

> <r_i_docking_score>
-8.13299351231996

> <r_i_glide_ligand_efficiency>
-0.271099783743999

> <r_i_glide_ligand_efficiency_sa>
-0.842370059451392

> <r_i_glide_ligand_efficiency_ln>
-1.847904742061

> <r_i_glide_gscore>
-8.13299351231996

> <r_i_glide_lipo>
-4.01307625865444

> <r_i_glide_hbond>
-0.578050332919759

> <r_i_glide_metal>
0

> <r_i_glide_rewards>
-1.10361096404716

> <r_i_glide_evdw>
-44.2268714904785

> <r_i_glide_ecoul>
-4.34354019165039

> <r_i_glide_erotb>
0.436357109187757

> <r_i_glide_esite>
-0.0117384626148744

> <r_i_glide_emodel>
-70.665287850338

> <r_i_glide_energy>
-48.5704116821289

> <r_i_glide_einternal>
3.85841727256775

> <i_i_glide_confnum>
21

> <i_i_glide_posenum>
253

> <r_i_glide_eff_state_penalty>
0

> <s_user_duplicate_titles>
CHEMBL1952_lig391,89884

> <i_f3d_flags>
0

> <s_m_subgroup_title>
dock_pv

> <s_m_subgroupid>
dock_pv

> <b_m_subgroup_collapsed>
1

$$$$
CHEMBL1952_lig139
                    3D
 Schrodinger Suite 2021-1.
 34 36  0  0  1  0            999 V2000
   13.0453   18.5673   31.5659 N   0  0  0  0  0  0
   12.8071   18.0577   30.3359 C   0  0  0  0  0  0
   13.4542   17.0455   29.7235 N   0  0  0  0  0  0
   14.0702   18.0442   32.2886 C   0  0  0  0  0  0
   14.4049   18.5204   33.5266 O   0  0  0  0  0  0
   15.9677   16.1544   32.1362 C   0  0  0  0  0  0
   14.8330   16.9738   31.7569 C   0  0  0  0  0  0
   14.4401   16.5438   30.4618 C   0  0  0  0  0  0
   15.2724   15.5267   30.0877 N   0  0  0  0  0  0
   16.1954   15.2769   31.0712 C   0  0  0  0  0  0
   17.2351   14.2032   30.8021 C   0  0  0  0  0  0
   11.7923   18.6290   29.5982 N   0  0  0  0  0  0
   17.7838   13.4960   32.0485 C   0  0  0  0  0  0
   16.9539   16.2862   33.5909 S   0  0  0  0  0  0
   16.1118   15.2185   34.7160 C   0  0  0  0  0  0
   16.8395   14.2464   35.4018 C   0  0  0  0  0  0
   16.1912   13.3852   36.2852 C   0  0  0  0  0  0
   14.8182   13.5020   36.5024 C   0  0  0  0  0  0
   14.0914   14.4893   35.8238 C   0  0  0  0  0  0
   14.7434   15.3549   34.9459 C   0  0  0  0  0  0
   12.3777   14.6270   35.9920 Cl  0  0  0  0  0  0
   14.0519   12.4138   37.6061 Cl  0  0  0  0  0  0
   13.8187   19.2407   33.7883 H   0  0  0  0  0  0
   15.2514   15.0137   29.2195 H   0  0  0  0  0  0
   16.8092   13.4323   30.1564 H   0  0  0  0  0  0
   18.0691   14.6275   30.2421 H   0  0  0  0  0  0
   11.6048   18.2643   28.6813 H   0  0  0  0  0  0
   11.1345   19.2672   30.0360 H   0  0  0  0  0  0
   18.1922   12.5245   31.7830 H   0  0  0  0  0  0
   18.5660   14.0753   32.5385 H   0  0  0  0  0  0
   16.9954   13.2962   32.7697 H   0  0  0  0  0  0
   17.9028   14.1467   35.2399 H   0  0  0  0  0  0
   16.7591   12.6283   36.8049 H   0  0  0  0  0  0
   14.1745   16.1089   34.4258 H   0  0  0  0  0  0
  1  2  2  0  0  0
  1  4  1  0  0  0
  2 12  1  0  0  0
  2  3  1  0  0  0
  3  8  2  0  0  0
  4  5  1  0  0  0
  4  7  2  0  0  0
  5 23  1  0  0  0
  6  7  1  0  0  0
  6 10  2  0  0  0
  6 14  1  0  0  0
  7  8  1  0  0  0
  8  9  1  0  0  0
  9 10  1  0  0  0
  9 24  1  0  0  0
 10 11  1  0  0  0
 11 13  1  0  0  0
 11 25  1  0  0  0
 11 26  1  0  0  0
 12 27  1  0  0  0
 12 28  1  0  0  0
 13 29  1  0  0  0
 13 30  1  0  0  0
 13 31  1  0  0  0
 14 15  1  0  0  0
 15 16  2  0  0  0
 15 20  1  0  0  0
 16 17  1  0  0  0
 16 32  1  0  0  0
 17 18  2  0  0  0
 17 33  1  0  0  0
 18 19  1  0  0  0
 18 22  1  0  0  0
 19 20  2  0  0  0
 19 21  1  0  0  0
 20 34  1  0  0  0
M  END
> <s_m_entry_id>
41059

> <s_m_entry_name>
dock_pv.176

> <s_m_Source_Path>
/home/csk/Desktop/cluster/DUD-E-result/tysy

> <s_m_Source_File>
dock_pv.maegz

> <i_m_Source_File_Index>
176

> <chembl_id>
CHEMBL201941

> <chembl_pref_name>
None

> <i_lp_mmshare_version>
53161

> <r_lp_tautomer_probability>
1

> <s_lp_Force_Field>
OPLS_2005

> <r_lp_Energy>
1.895593

> <b_lp_Chiralities_Consistent>
1

> <s_lp_Variant>
CHEMBL1952_lig139-1

> <s_i_glide_gridfile>
glide-grid_1syn

> <i_i_glide_lignum>
316

> <i_i_glide_rotatable_bonds>
4

> <r_i_docking_score>
-8.13229615009106

> <r_i_glide_ligand_efficiency>
-0.369649825004139

> <r_i_glide_ligand_efficiency_sa>
-1.03577334716427

> <r_i_glide_ligand_efficiency_ln>
-1.98782981179169

> <r_i_glide_gscore>
-8.13229615009106

> <r_i_glide_lipo>
-3.49907356500143

> <r_i_glide_hbond>
-0.359381852899701

> <r_i_glide_metal>
0

> <r_i_glide_rewards>
-1.62632820159165

> <r_i_glide_evdw>
-38.7845497131348

> <r_i_glide_ecoul>
-6.31069183349609

> <r_i_glide_erotb>
0.30298977380355

> <r_i_glide_esite>
-0.064671043720682

> <r_i_glide_emodel>
-64.9121328091549

> <r_i_glide_energy>
-45.0952415466309

> <r_i_glide_einternal>
3.32392406463623

> <i_i_glide_confnum>
12

> <i_i_glide_posenum>
110

> <r_i_glide_eff_state_penalty>
0

> <s_user_duplicate_titles>
CHEMBL1952_lig139,337285

> <i_f3d_flags>
0

> <s_m_subgroup_title>
dock_pv

> <s_m_subgroupid>
dock_pv

> <b_m_subgroup_collapsed>
1

$$$$
CHEMBL1952_lig378
                    3D
 Schrodinger Suite 2021-1.
 41 44  0  0  1  0            999 V2000
   13.7690   16.6429   29.3208 N   0  0  0  0  0  0
   13.2171   17.5597   30.0245 C   0  0  0  0  0  0
   14.7542   16.0866   30.1299 C   0  0  0  0  0  0
   14.7780   16.6995   31.3533 C   0  0  0  0  0  0
   15.6740   16.4069   32.4007 C   0  0  0  0  0  0
   16.6347   15.3539   32.1502 C   0  0  0  0  0  0
   13.8035   17.6726   31.3611 C   0  0  0  0  0  0
   17.6354   14.9437   33.0734 N   0  0  0  0  0  0
   16.5927   14.7237   30.8797 C   0  0  0  0  0  0
   15.6728   15.0737   29.8804 C   0  0  0  0  0  0
   17.3534   14.7535   34.5056 C   0  0  0  0  0  0
   17.0957   10.6179   35.8161 N   0  0  0  0  0  0
   12.1925   18.3767   29.6181 N   0  0  0  0  0  0
   17.2880   13.2919   34.9535 C   0  0  0  0  0  0
   18.2263   11.0892   35.2303 C   0  0  0  0  0  0
   18.3653   12.4085   34.7952 C   0  0  0  0  0  0
   15.5254   17.2468   33.5484 C   0  0  0  0  0  0
   16.0709   11.4869   35.9917 C   0  0  0  0  0  0
   13.6601   18.4449   32.5129 C   0  0  0  0  0  0
   18.9373   14.5262   32.5451 C   0  0  0  0  0  0
   14.5233   18.2291   33.5952 C   0  0  0  0  0  0
   16.1309   12.8223   35.5910 C   0  0  0  0  0  0
   19.3584   10.0970   35.0832 C   0  0  0  0  0  0
   17.2856   13.9274   30.6495 H   0  0  0  0  0  0
   15.6869   14.5607   28.9301 H   0  0  0  0  0  0
   16.4010   15.1922   34.7861 H   0  0  0  0  0  0
   18.1252   15.2696   35.0793 H   0  0  0  0  0  0
   11.8286   18.2947   28.6825 H   0  0  0  0  0  0
   11.7403   19.0223   30.2506 H   0  0  0  0  0  0
   19.3001   12.7227   34.3565 H   0  0  0  0  0  0
   16.1902   17.1582   34.3863 H   0  0  0  0  0  0
   15.1854   11.0949   36.4688 H   0  0  0  0  0  0
   12.9167   19.2260   32.5755 H   0  0  0  0  0  0
   19.1874   15.0280   31.6109 H   0  0  0  0  0  0
   19.7366   14.7360   33.2561 H   0  0  0  0  0  0
   18.9358   13.4582   32.3280 H   0  0  0  0  0  0
   14.4272   18.8556   34.4714 H   0  0  0  0  0  0
   15.2835   13.4729   35.7527 H   0  0  0  0  0  0
   20.3243   10.5985   35.0124 H   0  0  0  0  0  0
   19.3917    9.4321   35.9451 H   0  0  0  0  0  0
   19.2229    9.4928   34.1859 H   0  0  0  0  0  0
  1  2  2  0  0  0
  1  3  1  0  0  0
  2  7  1  0  0  0
  2 13  1  0  0  0
  3  4  1  0  0  0
  3 10  2  0  0  0
  4  5  1  0  0  0
  4  7  2  0  0  0
  5 17  2  0  0  0
  5  6  1  0  0  0
  6  9  2  0  0  0
  6  8  1  0  0  0
  7 19  1  0  0  0
  8 11  1  0  0  0
  8 20  1  0  0  0
  9 10  1  0  0  0
  9 24  1  0  0  0
 10 25  1  0  0  0
 11 14  1  0  0  0
 11 26  1  0  0  0
 11 27  1  0  0  0
 12 18  1  0  0  0
 12 15  2  0  0  0
 13 28  1  0  0  0
 13 29  1  0  0  0
 14 16  2  0  0  0
 14 22  1  0  0  0
 15 16  1  0  0  0
 15 23  1  0  0  0
 16 30  1  0  0  0
 17 21  1  0  0  0
 17 31  1  0  0  0
 18 22  2  0  0  0
 18 32  1  0  0  0
 19 21  2  0  0  0
 19 33  1  0  0  0
 20 34  1  0  0  0
 20 35  1  0  0  0
 20 36  1  0  0  0
 21 37  1  0  0  0
 22 38  1  0  0  0
 23 39  1  0  0  0
 23 40  1  0  0  0
 23 41  1  0  0  0
M  END
> <s_m_entry_id>
41060

> <s_m_entry_name>
dock_pv.177

> <s_m_Source_Path>
/home/csk/Desktop/cluster/DUD-E-result/tysy

> <s_m_Source_File>
dock_pv.maegz

> <i_m_Source_File_Index>
177

> <chembl_id>
CHEMBL434980

> <chembl_pref_name>
None

> <i_lp_mmshare_version>
53161

> <r_lp_tautomer_probability>
1

> <s_lp_Force_Field>
OPLS_2005

> <r_lp_Energy>
46.993447

> <b_lp_Chiralities_Consistent>
1

> <s_lp_Variant>
CHEMBL1952_lig378-1

> <s_i_glide_gridfile>
glide-grid_1syn

> <i_i_glide_lignum>
752

> <i_i_glide_rotatable_bonds>
3

> <r_i_docking_score>
-8.12857823210744

> <r_i_glide_ligand_efficiency>
-0.353416444874237

> <r_i_glide_ligand_efficiency_sa>
-1.00506935666391

> <r_i_glide_ligand_efficiency_ln>
-1.96556392239594

> <r_i_glide_gscore>
-8.12857823210744

> <r_i_glide_lipo>
-3.6915007382758

> <r_i_glide_hbond>
-0.0291642494185061

> <r_i_glide_metal>
0

> <r_i_glide_rewards>
-2.04534090045191

> <r_i_glide_evdw>
-46.7278671264648

> <r_i_glide_ecoul>
-4.01896524429321

> <r_i_glide_erotb>
0.604109198982249

> <r_i_glide_esite>
-0.0274433999762501

> <r_i_glide_emodel>
-74.7731127391054

> <r_i_glide_energy>
-50.7468323707581

> <r_i_glide_einternal>
3.29466676712036

> <i_i_glide_confnum>
5

> <i_i_glide_posenum>
255

> <r_i_glide_eff_state_penalty>
0

> <s_user_duplicate_titles>
CHEMBL1952_lig378,87621

> <i_f3d_flags>
0

> <s_m_subgroup_title>
dock_pv

> <s_m_subgroupid>
dock_pv

> <b_m_subgroup_collapsed>
1

$$$$
CHEMBL1952_lig151
                    3D
 Schrodinger Suite 2021-1.
 32 34  0  0  1  0            999 V2000
   15.9075   16.2291   32.0258 N   0  0  0  0  0  0
   13.6355   18.9992   32.8255 N   0  0  0  0  0  0
   12.8252   18.9085   31.7176 C   0  0  0  0  0  0
   13.0166   17.9771   30.8417 N   0  0  0  0  0  0
   14.7144   18.2255   33.1540 C   0  0  0  0  0  0
   11.7936   19.8589   31.5912 N   0  0  0  0  0  0
   15.3716   18.4492   34.1610 O   0  0  0  0  0  0
   14.9239   17.1975   32.1383 C   0  0  0  0  0  0
   14.0687   17.1237   31.0405 C   0  0  0  0  0  0
   14.5362   16.0711   30.2550 C   0  0  0  0  0  0
   15.6670   15.5230   30.8552 C   0  0  0  0  0  0
   16.5568   14.3848   30.3951 C   0  0  0  0  0  0
   17.0507   16.0286   32.9280 C   0  0  0  0  0  0
   16.8750   14.9411   33.9815 C   0  0  0  0  0  0
   15.8621   15.0274   34.9443 C   0  0  0  0  0  0
   15.7606   14.0231   35.9087 C   0  0  0  0  0  0
   16.5925   12.9516   35.9488 N   0  0  0  0  0  0
   17.5718   12.8791   35.0097 C   0  0  0  0  0  0
   17.7495   13.8473   34.0193 C   0  0  0  0  0  0
   13.4249   19.7220   33.5047 H   0  0  0  0  0  0
   11.0670   19.7532   30.8888 H   0  0  0  0  0  0
   11.5390   20.4590   32.3597 H   0  0  0  0  0  0
   14.1041   15.7477   29.3215 H   0  0  0  0  0  0
   16.1893   13.9266   29.4747 H   0  0  0  0  0  0
   17.5781   14.7159   30.1981 H   0  0  0  0  0  0
   16.6171   13.5881   31.1385 H   0  0  0  0  0  0
   17.9279   15.8228   32.3144 H   0  0  0  0  0  0
   17.2814   16.9678   33.4292 H   0  0  0  0  0  0
   15.1777   15.8624   34.9572 H   0  0  0  0  0  0
   14.9997   14.0711   36.6730 H   0  0  0  0  0  0
   18.2292   12.0226   35.0609 H   0  0  0  0  0  0
   18.5485   13.7417   33.2981 H   0  0  0  0  0  0
  1 11  1  0  0  0
  1  8  1  0  0  0
  1 13  1  0  0  0
  2  3  1  0  0  0
  2  5  1  0  0  0
  2 20  1  0  0  0
  3  6  1  0  0  0
  3  4  2  0  0  0
  4  9  1  0  0  0
  5  8  1  0  0  0
  5  7  2  0  0  0
  6 21  1  0  0  0
  6 22  1  0  0  0
  8  9  2  0  0  0
  9 10  1  0  0  0
 10 11  2  0  0  0
 10 23  1  0  0  0
 11 12  1  0  0  0
 12 24  1  0  0  0
 12 25  1  0  0  0
 12 26  1  0  0  0
 13 14  1  0  0  0
 13 27  1  0  0  0
 13 28  1  0  0  0
 14 15  2  0  0  0
 14 19  1  0  0  0
 15 16  1  0  0  0
 15 29  1  0  0  0
 16 17  2  0  0  0
 16 30  1  0  0  0
 17 18  1  0  0  0
 18 19  2  0  0  0
 18 31  1  0  0  0
 19 32  1  0  0  0
M  END
> <s_m_entry_id>
41061

> <s_m_entry_name>
dock_pv.178

> <s_m_Source_Path>
/home/csk/Desktop/cluster/DUD-E-result/tysy

> <s_m_Source_File>
dock_pv.maegz

> <i_m_Source_File_Index>
178

> <chembl_id>
CHEMBL252133

> <chembl_pref_name>
None

> <i_lp_mmshare_version>
53161

> <r_lp_tautomer_probability>
1

> <s_lp_Force_Field>
OPLS_2005

> <r_lp_Energy>
18.790145

> <b_lp_Chiralities_Consistent>
1

> <s_lp_Variant>
CHEMBL1952_lig151-1

> <s_i_glide_gridfile>
glide-grid_1syn

> <i_i_glide_lignum>
328

> <i_i_glide_rotatable_bonds>
2

> <r_i_docking_score>
-8.12382517384396

> <r_i_glide_ligand_efficiency>
-0.427569745991787

> <r_i_glide_ligand_efficiency_sa>
-1.14092781402831

> <r_i_glide_ligand_efficiency_ln>
-2.05956416533555

> <r_i_glide_gscore>
-8.12382517384396

> <r_i_glide_lipo>
-2.88659634776874

> <r_i_glide_hbond>
-0.454106499654878

> <r_i_glide_metal>
0

> <r_i_glide_rewards>
-2.52892978022464

> <r_i_glide_evdw>
-38.6296234130859

> <r_i_glide_ecoul>
-5.73159217834473

> <r_i_glide_erotb>
0.540284494288743

> <r_i_glide_esite>
-0.0032570430784338

> <r_i_glide_emodel>
-67.5173222602428

> <r_i_glide_energy>
-44.3612155914307

> <r_i_glide_einternal>
0.401348263025284

> <i_i_glide_confnum>
4

> <i_i_glide_posenum>
251

> <r_i_glide_eff_state_penalty>
0

> <s_user_duplicate_titles>
CHEMBL1952_lig151

> <i_f3d_flags>
0

> <s_m_subgroup_title>
dock_pv

> <s_m_subgroupid>
dock_pv

> <b_m_subgroup_collapsed>
1

$$$$
CHEMBL1952_lig471
                    3D
 Schrodinger Suite 2021-1.
 37 40  0  0  1  0            999 V2000
   15.7977   10.6702   36.7999 C   0  0  0  0  0  0
   14.5504   12.7447   36.7838 C   0  0  0  0  0  0
   14.7406   11.4494   37.1525 O   0  0  0  0  0  0
   16.8874   11.3045   35.9921 C   0  0  0  0  0  0
   18.0680   10.6267   35.6815 C   0  0  0  0  0  0
   19.0613   11.2150   34.9140 C   0  0  0  0  0  0
   18.8990   12.4939   34.3922 C   0  0  0  0  0  0
   15.5540   13.3493   35.8527 C   0  0  0  0  0  0
   16.7370   12.6355   35.5029 C   0  0  0  0  0  0
   17.7190   13.2165   34.6548 C   0  0  0  0  0  0
   17.4525   14.4660   34.0610 C   0  0  0  0  0  0
   16.2439   15.1098   34.3100 C   0  0  0  0  0  0
   15.3404   14.5909   35.2537 C   0  0  0  0  0  0
   15.7923    9.5043   37.1953 O   0  0  0  0  0  0
   13.5482   13.3113   37.2181 O   0  0  0  0  0  0
   15.9153   16.1684   33.4534 N   0  0  0  0  0  0
   14.9640   17.0908   33.6707 C   0  0  0  0  0  0
   14.5922   17.4173   34.7974 O   0  0  0  0  0  0
   14.3015   17.6892   32.4586 C   0  0  0  0  0  0
   13.3623   18.6957   32.6680 C   0  0  0  0  0  0
   12.6889   19.2924   31.6101 C   0  0  0  0  0  0
   12.9218   18.8500   30.3044 C   0  0  0  0  0  0
   13.8387   17.8234   30.0747 C   0  0  0  0  0  0
   14.5307   17.2460   31.1435 C   0  0  0  0  0  0
   11.7579   20.3816   31.9039 N   0  3  0  0  0  0
   11.7919   21.3749   31.1912 O   0  0  0  0  0  0
   10.9923   20.2283   32.8510 O   0  5  0  0  0  0
   18.2539    9.6350   36.0520 H   0  0  0  0  0  0
   19.9688   10.6646   34.7086 H   0  0  0  0  0  0
   19.6633   12.9286   33.7617 H   0  0  0  0  0  0
   18.1611   14.8665   33.3488 H   0  0  0  0  0  0
   14.4046   15.0946   35.4496 H   0  0  0  0  0  0
   16.2976   16.1069   32.5234 H   0  0  0  0  0  0
   13.1443   19.0306   33.6733 H   0  0  0  0  0  0
   12.3938   19.3026   29.4757 H   0  0  0  0  0  0
   14.0165   17.4801   29.0658 H   0  0  0  0  0  0
   15.2275   16.4492   30.9281 H   0  0  0  0  0  0
  1  4  1  0  0  0
  1  3  1  0  0  0
  1 14  2  0  0  0
  2  8  1  0  0  0
  2  3  1  0  0  0
  2 15  2  0  0  0
  4  9  2  0  0  0
  4  5  1  0  0  0
  5  6  2  0  0  0
  5 28  1  0  0  0
  6  7  1  0  0  0
  6 29  1  0  0  0
  7 10  2  0  0  0
  7 30  1  0  0  0
  8  9  1  0  0  0
  8 13  2  0  0  0
  9 10  1  0  0  0
 10 11  1  0  0  0
 11 12  2  0  0  0
 11 31  1  0  0  0
 12 13  1  0  0  0
 12 16  1  0  0  0
 13 32  1  0  0  0
 16 17  1  0  0  0
 16 33  1  0  0  0
 17 18  2  0  0  0
 17 19  1  0  0  0
 19 20  2  0  0  0
 19 24  1  0  0  0
 20 21  1  0  0  0
 20 34  1  0  0  0
 21 22  2  0  0  0
 21 25  1  0  0  0
 22 23  1  0  0  0
 22 35  1  0  0  0
 23 24  2  0  0  0
 23 36  1  0  0  0
 24 37  1  0  0  0
 25 26  2  0  0  0
 25 27  1  0  0  0
M  CHG  2  25   1  27  -1
M  END
> <s_m_entry_id>
41062

> <s_m_entry_name>
dock_pv.179

> <s_m_Source_Path>
/home/csk/Desktop/cluster/DUD-E-result/tysy

> <s_m_Source_File>
dock_pv.maegz

> <i_m_Source_File_Index>
179

> <chembl_id>
CHEMBL2323378

> <chembl_pref_name>
None

> <i_lp_mmshare_version>
53161

> <r_lp_tautomer_probability>
1

> <s_lp_Force_Field>
OPLS_2005

> <r_lp_Energy>
50.135402

> <b_lp_Chiralities_Consistent>
1

> <s_lp_Variant>
CHEMBL1952_lig471-1

> <s_i_glide_gridfile>
glide-grid_1syn

> <i_i_glide_lignum>
901

> <i_i_glide_rotatable_bonds>
4

> <r_i_docking_score>
-8.11684170373568

> <r_i_glide_ligand_efficiency>
-0.300623766805025

> <r_i_glide_ligand_efficiency_sa>
-0.901871299424269

> <r_i_glide_ligand_efficiency_ln>
-1.88946693203584

> <r_i_glide_gscore>
-8.11684170373568

> <r_i_glide_lipo>
-3.06017511845625

> <r_i_glide_hbond>
-0.255605980421611

> <r_i_glide_metal>
0

> <r_i_glide_rewards>
-2.10986376419785

> <r_i_glide_evdw>
-46.4109840393066

> <r_i_glide_ecoul>
-4.8788480758667

> <r_i_glide_erotb>
0.438844993146659

> <r_i_glide_esite>
-0.0776654204612944

> <r_i_glide_emodel>
-68.7112345199764

> <r_i_glide_energy>
-51.2898321151733

> <r_i_glide_einternal>
14.6847772598267

> <i_i_glide_confnum>
8

> <i_i_glide_posenum>
325

> <r_i_glide_eff_state_penalty>
0

> <s_user_duplicate_titles>
CHEMBL1952_lig471

> <i_f3d_flags>
0

> <s_m_subgroup_title>
dock_pv

> <s_m_subgroupid>
dock_pv

> <b_m_subgroup_collapsed>
1

$$$$
CHEMBL1952_lig136
                    3D
 Schrodinger Suite 2021-1.
 34 36  0  0  1  0            999 V2000
   12.9521   18.7472   31.5201 N   0  0  0  0  0  0
   12.7438   18.2723   30.2714 C   0  0  0  0  0  0
   13.3670   17.2450   29.6602 N   0  0  0  0  0  0
   13.9336   18.1769   32.2643 C   0  0  0  0  0  0
   14.2531   18.6220   33.5184 O   0  0  0  0  0  0
   15.7767   16.2418   32.1269 C   0  0  0  0  0  0
   14.6737   17.0908   31.7339 C   0  0  0  0  0  0
   14.3055   16.6934   30.4226 C   0  0  0  0  0  0
   15.1091   15.6498   30.0607 N   0  0  0  0  0  0
   16.0020   15.3620   31.0615 C   0  0  0  0  0  0
   17.0009   14.2488   30.7909 C   0  0  0  0  0  0
   11.7956   18.9145   29.5099 N   0  0  0  0  0  0
   17.6996   13.6644   32.0245 C   0  0  0  0  0  0
   16.7368   16.3819   33.5910 S   0  0  0  0  0  0
   15.8975   15.3332   34.7435 C   0  0  0  0  0  0
   16.6443   14.3909   35.4526 C   0  0  0  0  0  0
   16.0177   13.5577   36.3761 C   0  0  0  0  0  0
   14.6491   13.6813   36.5994 C   0  0  0  0  0  0
   13.9039   14.6284   35.9033 C   0  0  0  0  0  0
   14.5296   15.4637   34.9794 C   0  0  0  0  0  0
   13.7909   12.5551   37.8699 Br  0  0  0  0  0  0
   13.6902   19.3582   33.7885 H   0  0  0  0  0  0
   15.0932   15.1492   29.1852 H   0  0  0  0  0  0
   16.5043   13.4237   30.2770 H   0  0  0  0  0  0
   17.7628   14.6042   30.0968 H   0  0  0  0  0  0
   11.6000   18.5458   28.5955 H   0  0  0  0  0  0
   11.0763   19.4481   29.9901 H   0  0  0  0  0  0
   18.1923   12.7284   31.7694 H   0  0  0  0  0  0
   18.4529   14.3432   32.4252 H   0  0  0  0  0  0
   16.9921   13.4294   32.8162 H   0  0  0  0  0  0
   17.7074   14.2988   35.2827 H   0  0  0  0  0  0
   16.5934   12.8248   36.9219 H   0  0  0  0  0  0
   12.8416   14.7144   36.0749 H   0  0  0  0  0  0
   13.9479   16.1994   34.4464 H   0  0  0  0  0  0
  1  4  2  0  0  0
  1  2  1  0  0  0
  2 12  1  0  0  0
  2  3  2  0  0  0
  3  8  1  0  0  0
  4  5  1  0  0  0
  4  7  1  0  0  0
  5 22  1  0  0  0
  6  7  1  0  0  0
  6 14  1  0  0  0
  6 10  2  0  0  0
  7  8  2  0  0  0
  8  9  1  0  0  0
  9 10  1  0  0  0
  9 23  1  0  0  0
 10 11  1  0  0  0
 11 13  1  0  0  0
 11 24  1  0  0  0
 11 25  1  0  0  0
 12 26  1  0  0  0
 12 27  1  0  0  0
 13 28  1  0  0  0
 13 29  1  0  0  0
 13 30  1  0  0  0
 14 15  1  0  0  0
 15 16  2  0  0  0
 15 20  1  0  0  0
 16 17  1  0  0  0
 16 31  1  0  0  0
 17 18  2  0  0  0
 17 32  1  0  0  0
 18 19  1  0  0  0
 18 21  1  0  0  0
 19 20  2  0  0  0
 19 33  1  0  0  0
 20 34  1  0  0  0
M  END
> <s_m_entry_id>
41063

> <s_m_entry_name>
dock_pv.180

> <s_m_Source_Path>
/home/csk/Desktop/cluster/DUD-E-result/tysy

> <s_m_Source_File>
dock_pv.maegz

> <i_m_Source_File_Index>
180

> <chembl_id>
CHEMBL371666

> <chembl_pref_name>
None

> <i_lp_mmshare_version>
53161

> <r_lp_tautomer_probability>
1

> <s_lp_Force_Field>
OPLS_2005

> <r_lp_Energy>
3.542334

> <b_lp_Chiralities_Consistent>
1

> <s_lp_Variant>
CHEMBL1952_lig136-1

> <s_i_glide_gridfile>
glide-grid_1syn

> <i_i_glide_lignum>
313

> <i_i_glide_rotatable_bonds>
4

> <r_i_docking_score>
-8.11362345754226

> <r_i_glide_ligand_efficiency>
-0.386363021787727

> <r_i_glide_ligand_efficiency_sa>
-1.06594628058806

> <r_i_glide_ligand_efficiency_ln>
-2.00607700475739

> <r_i_glide_gscore>
-8.11362345754226

> <r_i_glide_lipo>
-3.43504043784108

> <r_i_glide_hbond>
-0.408092183934388

> <r_i_glide_metal>
0

> <r_i_glide_rewards>
-1.5030847961244

> <r_i_glide_evdw>
-38.4436950683594

> <r_i_glide_ecoul>
-7.10893249511719

> <r_i_glide_erotb>
0.288350779095535

> <r_i_glide_esite>
-0.0672321910523723

> <r_i_glide_emodel>
-66.5342186274317

> <r_i_glide_energy>
-45.5526275634766

> <r_i_glide_einternal>
4.56827878952026

> <i_i_glide_confnum>
4

> <i_i_glide_posenum>
77

> <r_i_glide_eff_state_penalty>
0

> <s_user_duplicate_titles>
CHEMBL1952_lig136

> <i_f3d_flags>
0

> <s_m_subgroup_title>
dock_pv

> <s_m_subgroupid>
dock_pv

> <b_m_subgroup_collapsed>
1

$$$$
CHEMBL1952_lig383
                    3D
 Schrodinger Suite 2021-1.
 44 47  0  0  1  0            999 V2000
   14.5503   16.7829   29.2035 N   0  0  0  0  0  0
   14.9903   16.5336   31.4263 C   0  0  0  0  0  0
   13.7921   17.5748   29.8610 C   0  0  0  0  0  0
   15.3147   16.1222   30.1600 C   0  0  0  0  0  0
   15.5664   16.0587   32.6259 C   0  0  0  0  0  0
   13.9980   17.4810   31.3070 C   0  0  0  0  0  0
   16.6771   15.1268   32.4612 C   0  0  0  0  0  0
   17.5018   14.7226   33.5455 N   0  0  0  0  0  0
   13.4965   18.0541   32.4714 C   0  0  0  0  0  0
   16.9920   14.7031   31.1431 C   0  0  0  0  0  0
   14.9285   16.5821   33.8187 C   0  0  0  0  0  0
   16.3094   15.1675   30.0128 C   0  0  0  0  0  0
   18.2279   13.4381   33.5009 C   0  0  0  0  0  0
   16.9779   10.3300   36.2469 N   0  0  0  0  0  0
   13.9483   17.5894   33.7104 C   0  0  0  0  0  0
   12.8685   18.4339   29.3246 N   0  0  0  0  0  0
   17.8062   12.4235   34.5590 C   0  0  0  0  0  0
   16.2020   11.4281   36.0589 C   0  0  0  0  0  0
   16.5843   12.4898   35.2353 C   0  0  0  0  0  0
   18.1838   10.3009   35.6239 C   0  0  0  0  0  0
   18.3313   15.8219   34.0396 C   0  0  0  0  0  0
   18.6315   11.3221   34.7944 C   0  0  0  0  0  0
   15.1476   15.9746   35.1977 C   0  0  0  0  0  0
   14.8718   11.4338   36.7861 C   0  0  0  0  0  0
   12.7344   18.8191   32.4391 H   0  0  0  0  0  0
   17.8216   14.0421   30.9464 H   0  0  0  0  0  0
   16.5925   14.8166   29.0324 H   0  0  0  0  0  0
   19.2991   13.6197   33.6239 H   0  0  0  0  0  0
   18.1548   12.9113   32.5519 H   0  0  0  0  0  0
   13.4904   17.9986   34.6002 H   0  0  0  0  0  0
   12.7491   18.4793   28.3238 H   0  0  0  0  0  0
   12.2921   19.0178   29.9139 H   0  0  0  0  0  0
   15.9185   13.3203   35.0835 H   0  0  0  0  0  0
   18.8075    9.4345   35.7935 H   0  0  0  0  0  0
   17.8299   16.7892   33.9908 H   0  0  0  0  0  0
   18.6030   15.6470   35.0823 H   0  0  0  0  0  0
   19.2526   15.8839   33.4602 H   0  0  0  0  0  0
   19.5997   11.2376   34.3342 H   0  0  0  0  0  0
   14.7249   16.5991   35.9879 H   0  0  0  0  0  0
   14.6229   15.0217   35.2481 H   0  0  0  0  0  0
   16.1864   15.8126   35.4580 H   0  0  0  0  0  0
   14.2670   12.2988   36.5114 H   0  0  0  0  0  0
   14.3020   10.5363   36.5446 H   0  0  0  0  0  0
   15.0319   11.4632   37.8640 H   0  0  0  0  0  0
  1  3  2  0  0  0
  1  4  1  0  0  0
  2  4  1  0  0  0
  2  5  1  0  0  0
  2  6  2  0  0  0
  3  6  1  0  0  0
  3 16  1  0  0  0
  4 12  2  0  0  0
  5 11  2  0  0  0
  5  7  1  0  0  0
  6  9  1  0  0  0
  7 10  2  0  0  0
  7  8  1  0  0  0
  8 13  1  0  0  0
  8 21  1  0  0  0
  9 15  2  0  0  0
  9 25  1  0  0  0
 10 12  1  0  0  0
 10 26  1  0  0  0
 11 23  1  0  0  0
 11 15  1  0  0  0
 12 27  1  0  0  0
 13 17  1  0  0  0
 13 28  1  0  0  0
 13 29  1  0  0  0
 14 20  1  0  0  0
 14 18  2  0  0  0
 15 30  1  0  0  0
 16 31  1  0  0  0
 16 32  1  0  0  0
 17 19  2  0  0  0
 17 22  1  0  0  0
 18 19  1  0  0  0
 18 24  1  0  0  0
 19 33  1  0  0  0
 20 22  2  0  0  0
 20 34  1  0  0  0
 21 35  1  0  0  0
 21 36  1  0  0  0
 21 37  1  0  0  0
 22 38  1  0  0  0
 23 39  1  0  0  0
 23 40  1  0  0  0
 23 41  1  0  0  0
 24 42  1  0  0  0
 24 43  1  0  0  0
 24 44  1  0  0  0
M  END
> <s_m_entry_id>
41064

> <s_m_entry_name>
dock_pv.181

> <s_m_Source_Path>
/home/csk/Desktop/cluster/DUD-E-result/tysy

> <s_m_Source_File>
dock_pv.maegz

> <i_m_Source_File_Index>
181

> <chembl_id>
CHEMBL55263

> <chembl_pref_name>
None

> <i_lp_mmshare_version>
53161

> <r_lp_tautomer_probability>
1

> <s_lp_Force_Field>
OPLS_2005

> <r_lp_Energy>
49.981206

> <b_lp_Chiralities_Consistent>
1

> <s_lp_Variant>
CHEMBL1952_lig383-1

> <s_i_glide_gridfile>
glide-grid_1syn

> <i_i_glide_lignum>
760

> <i_i_glide_rotatable_bonds>
3

> <r_i_docking_score>
-8.11191664002287

> <r_i_glide_ligand_efficiency>
-0.33799652666762

> <r_i_glide_ligand_efficiency_sa>
-0.974950689670727

> <r_i_glide_ligand_efficiency_ln>
-1.94155388355715

> <r_i_glide_gscore>
-8.11191664002287

> <r_i_glide_lipo>
-3.98230991458631

> <r_i_glide_hbond>
0

> <r_i_glide_metal>
0

> <r_i_glide_rewards>
-1.89975256507038

> <r_i_glide_evdw>
-44.1840515136719

> <r_i_glide_ecoul>
-3.8568799495697

> <r_i_glide_erotb>
0.557880407752864

> <r_i_glide_esite>
0

> <r_i_glide_emodel>
-66.6402466373808

> <r_i_glide_energy>
-48.0409314632416

> <r_i_glide_einternal>
6.22772741317749

> <i_i_glide_confnum>
20

> <i_i_glide_posenum>
399

> <r_i_glide_eff_state_penalty>
0

> <s_user_duplicate_titles>
CHEMBL1952_lig383,87508

> <i_f3d_flags>
0

> <s_m_subgroup_title>
dock_pv

> <s_m_subgroupid>
dock_pv

> <b_m_subgroup_collapsed>
1

$$$$
CHEMBL1952_lig380
                    3D
 Schrodinger Suite 2021-1.
 41 44  0  0  1  0            999 V2000
   14.9155   16.4751   29.5142 N   0  0  0  0  0  0
   14.1875   17.3648   30.0946 C   0  0  0  0  0  0
   15.6311   15.8458   30.5304 C   0  0  0  0  0  0
   15.3034   16.3894   31.7410 C   0  0  0  0  0  0
   15.8671   16.0288   32.9732 C   0  0  0  0  0  0
   16.8955   15.0284   32.9442 C   0  0  0  0  0  0
   14.3583   17.3663   31.5454 C   0  0  0  0  0  0
   17.5926   14.6950   34.1273 N   0  0  0  0  0  0
   17.2258   14.4485   31.6953 C   0  0  0  0  0  0
   16.5958   14.8402   30.5003 C   0  0  0  0  0  0
   17.9331   13.2931   34.4145 C   0  0  0  0  0  0
   13.3411   18.2882   29.5145 N   0  0  0  0  0  0
   15.1479   11.1694   36.9923 N   0  0  0  0  0  0
   15.3426   16.7216   34.1014 C   0  0  0  0  0  0
   16.9512   12.5870   35.3563 C   0  0  0  0  0  0
   13.8808   18.0545   32.6627 C   0  0  0  0  0  0
   18.5942   15.6885   34.5004 C   0  0  0  0  0  0
   14.3692   17.7221   33.9339 C   0  0  0  0  0  0
   16.1914   10.5467   36.3916 C   0  0  0  0  0  0
   15.0123   12.5037   36.7902 C   0  0  0  0  0  0
   13.2546   18.4896   28.0801 C   0  0  0  0  0  0
   15.8830   13.2437   35.9892 C   0  0  0  0  0  0
   17.1122   11.2157   35.5841 C   0  0  0  0  0  0
   18.0102   13.7084   31.6288 H   0  0  0  0  0  0
   16.8894   14.3835   29.5680 H   0  0  0  0  0  0
   18.9319   13.2197   34.8486 H   0  0  0  0  0  0
   17.9881   12.7014   33.5006 H   0  0  0  0  0  0
   12.8511   18.9582   30.0891 H   0  0  0  0  0  0
   15.7010   16.4762   35.0875 H   0  0  0  0  0  0
   13.1463   18.8411   32.5661 H   0  0  0  0  0  0
   18.3190   16.6977   34.1895 H   0  0  0  0  0  0
   18.6897   15.7144   35.5849 H   0  0  0  0  0  0
   19.5643   15.4507   34.0607 H   0  0  0  0  0  0
   13.9915   18.2568   34.7931 H   0  0  0  0  0  0
   16.2771    9.4839   36.5588 H   0  0  0  0  0  0
   14.1794   12.9835   37.2818 H   0  0  0  0  0  0
   12.4634   19.2018   27.8430 H   0  0  0  0  0  0
   14.1926   18.8733   27.6811 H   0  0  0  0  0  0
   13.0302   17.5463   27.5903 H   0  0  0  0  0  0
   15.7198   14.3024   35.8636 H   0  0  0  0  0  0
   17.9237   10.6734   35.1200 H   0  0  0  0  0  0
  1  2  2  0  0  0
  1  3  1  0  0  0
  2  7  1  0  0  0
  2 12  1  0  0  0
  3  4  1  0  0  0
  3 10  2  0  0  0
  4  5  1  0  0  0
  4  7  2  0  0  0
  5 14  2  0  0  0
  5  6  1  0  0  0
  6  9  2  0  0  0
  6  8  1  0  0  0
  7 16  1  0  0  0
  8 11  1  0  0  0
  8 17  1  0  0  0
  9 10  1  0  0  0
  9 24  1  0  0  0
 10 25  1  0  0  0
 11 15  1  0  0  0
 11 26  1  0  0  0
 11 27  1  0  0  0
 12 21  1  0  0  0
 12 28  1  0  0  0
 13 19  1  0  0  0
 13 20  2  0  0  0
 14 18  1  0  0  0
 14 29  1  0  0  0
 15 22  2  0  0  0
 15 23  1  0  0  0
 16 18  2  0  0  0
 16 30  1  0  0  0
 17 31  1  0  0  0
 17 32  1  0  0  0
 17 33  1  0  0  0
 18 34  1  0  0  0
 19 23  2  0  0  0
 19 35  1  0  0  0
 20 22  1  0  0  0
 20 36  1  0  0  0
 21 37  1  0  0  0
 21 38  1  0  0  0
 21 39  1  0  0  0
 22 40  1  0  0  0
 23 41  1  0  0  0
M  END
> <s_m_entry_id>
41065

> <s_m_entry_name>
dock_pv.182

> <s_m_Source_Path>
/home/csk/Desktop/cluster/DUD-E-result/tysy

> <s_m_Source_File>
dock_pv.maegz

> <i_m_Source_File_Index>
182

> <chembl_id>
CHEMBL55361

> <chembl_pref_name>
None

> <i_lp_mmshare_version>
53161

> <r_lp_tautomer_probability>
1

> <s_lp_Force_Field>
OPLS_2005

> <r_lp_Energy>
47.568142

> <b_lp_Chiralities_Consistent>
1

> <s_lp_Variant>
CHEMBL1952_lig380-1

> <s_i_glide_gridfile>
glide-grid_1syn

> <i_i_glide_lignum>
754

> <i_i_glide_rotatable_bonds>
4

> <r_i_docking_score>
-8.11182132500762

> <r_i_glide_ligand_efficiency>
-0.352687883695984

> <r_i_glide_ligand_efficiency_sa>
-1.00299742558844

> <r_i_glide_ligand_efficiency_ln>
-1.96151195031598

> <r_i_glide_gscore>
-8.11182132500762

> <r_i_glide_lipo>
-4.17448622540608

> <r_i_glide_hbond>
0

> <r_i_glide_metal>
0

> <r_i_glide_rewards>
-2.06054117973499

> <r_i_glide_evdw>
-44.2370185852051

> <r_i_glide_ecoul>
-1.79368126392365

> <r_i_glide_erotb>
0.604109198982249

> <r_i_glide_esite>
0

> <r_i_glide_emodel>
-62.6577933563643

> <r_i_glide_energy>
-46.0306998491287

> <r_i_glide_einternal>
10.2487745285034

> <i_i_glide_confnum>
22

> <i_i_glide_posenum>
27

> <r_i_glide_eff_state_penalty>
0

> <s_user_duplicate_titles>
CHEMBL1952_lig380,87622

> <i_f3d_flags>
0

> <s_m_subgroup_title>
dock_pv

> <s_m_subgroupid>
dock_pv

> <b_m_subgroup_collapsed>
1

$$$$
CHEMBL1952_lig182
                    3D
 Schrodinger Suite 2021-1.
 60 62  0  0  1  0            999 V2000
   13.1847   17.8370   31.4947 N   0  0  0  0  0  0
   13.3434   17.2322   30.2802 C   0  0  0  0  0  0
   14.2859   16.3865   30.0743 N   0  0  0  0  0  0
   13.9823   17.7059   32.5794 C   0  0  0  0  0  0
   12.3556   17.5655   29.1940 C   0  0  0  0  0  0
   13.7058   18.2290   33.6510 O   0  0  0  0  0  0
   15.1694   16.8163   32.3155 C   0  0  0  0  0  0
   15.2306   16.1501   31.0881 C   0  0  0  0  0  0
   16.2762   15.2640   30.8392 C   0  0  0  0  0  0
   17.2873   15.0980   31.7916 C   0  0  0  0  0  0
   17.2578   15.8268   32.9940 C   0  0  0  0  0  0
   16.1690   16.6551   33.2726 C   0  0  0  0  0  0
   18.4352   15.8102   33.9700 C   0  0  0  0  0  0
   18.9762   14.4742   34.1890 N   0  0  0  0  0  0
   18.1673   13.4703   34.7883 C   0  0  0  0  0  0
   18.5105   12.1132   34.7282 C   0  0  0  0  0  0
   17.6988   11.1406   35.3051 C   0  0  0  0  0  0
   16.5075   11.5077   35.9406 C   0  0  0  0  0  0
   16.1616   12.8599   36.0168 C   0  0  0  0  0  0
   16.9852   13.8223   35.4568 C   0  0  0  0  0  0
   15.6080   10.4559   36.5270 C   0  0  0  0  0  0
   16.0659    9.4284   37.0242 O   0  0  0  0  0  0
   14.2948   10.7197   36.4487 N   0  0  0  0  0  0
   13.2088    9.8368   36.8838 C   0  0  1  0  0  0
   12.0335   10.7124   37.4083 C   0  0  0  0  0  0
   12.8352    8.8429   35.7535 C   0  0  0  0  0  0
   11.6316    8.2537   35.9918 O   0  0  0  0  0  0
   13.5349    8.6014   34.7911 O   0  0  0  0  0  0
   12.4543   11.7124   38.5145 C   0  0  0  0  0  0
   11.2802   12.4703   39.1302 C   0  0  0  0  0  0
   10.6160   13.2290   38.2132 O   0  0  0  0  0  0
   10.9911   12.4280   40.3254 O   0  0  0  0  0  0
   20.2927   14.2047   33.6124 C   0  0  0  0  0  0
   21.3679   13.8830   34.6629 C   0  0  0  0  0  0
   12.4034   18.4566   31.6354 H   0  0  0  0  0  0
   11.4746   16.9287   29.2587 H   0  0  0  0  0  0
   12.0273   18.6043   29.2524 H   0  0  0  0  0  0
   12.8119   17.4299   28.2136 H   0  0  0  0  0  0
   16.3222   14.7374   29.8977 H   0  0  0  0  0  0
   18.1216   14.4452   31.5737 H   0  0  0  0  0  0
   16.1203   17.2054   34.2020 H   0  0  0  0  0  0
   18.1921   16.2278   34.9358 H   0  0  0  0  0  0
   19.2001   16.4815   33.5913 H   0  0  0  0  0  0
   19.3923   11.7882   34.2027 H   0  0  0  0  0  0
   17.9916   10.1024   35.2294 H   0  0  0  0  0  0
   15.2635   13.1875   36.5199 H   0  0  0  0  0  0
   16.6733   14.8499   35.5552 H   0  0  0  0  0  0
   14.0104   11.5555   35.9638 H   0  0  0  0  0  0
   13.5674    9.2243   37.7133 H   0  0  0  0  0  0
   11.2423   10.0718   37.8010 H   0  0  0  0  0  0
   11.5907   11.2663   36.5778 H   0  0  0  0  0  0
   11.3957    7.6877   35.2438 H   0  0  0  0  0  0
   13.1586   12.4487   38.1258 H   0  0  0  0  0  0
   12.9729   11.1803   39.3123 H   0  0  0  0  0  0
    9.8846   13.7156   38.5997 H   0  0  0  0  0  0
   20.1908   13.4273   32.8698 H   0  0  0  0  0  0
   20.6322   15.0395   33.0055 H   0  0  0  0  0  0
   22.3510   13.8172   34.1959 H   0  0  0  0  0  0
   21.4060   14.6774   35.4009 H   0  0  0  0  0  0
   21.1932   12.9410   35.1845 H   0  0  0  0  0  0
  1  2  1  0  0  0
  1  4  1  0  0  0
  1 35  1  0  0  0
  2  5  1  0  0  0
  2  3  2  0  0  0
  3  8  1  0  0  0
  4  7  1  0  0  0
  4  6  2  0  0  0
  5 36  1  0  0  0
  5 37  1  0  0  0
  5 38  1  0  0  0
  7  8  2  0  0  0
  7 12  1  0  0  0
  8  9  1  0  0  0
  9 10  2  0  0  0
  9 39  1  0  0  0
 10 11  1  0  0  0
 10 40  1  0  0  0
 11 12  2  0  0  0
 11 13  1  0  0  0
 12 41  1  0  0  0
 13 14  1  0  0  0
 13 42  1  0  0  0
 13 43  1  0  0  0
 14 15  1  0  0  0
 14 33  1  0  0  0
 15 20  1  0  0  0
 15 16  2  0  0  0
 16 17  1  0  0  0
 16 44  1  0  0  0
 17 18  2  0  0  0
 17 45  1  0  0  0
 18 19  1  0  0  0
 18 21  1  0  0  0
 19 20  2  0  0  0
 19 46  1  0  0  0
 20 47  1  0  0  0
 21 22  2  0  0  0
 21 23  1  0  0  0
 23 24  1  0  0  0
 23 48  1  0  0  0
 24 25  1  0  0  0
 24 26  1  0  0  0
 24 49  1  0  0  0
 25 29  1  0  0  0
 25 50  1  0  0  0
 25 51  1  0  0  0
 26 27  1  0  0  0
 26 28  2  0  0  0
 27 52  1  0  0  0
 29 30  1  0  0  0
 29 53  1  0  0  0
 29 54  1  0  0  0
 30 31  1  0  0  0
 30 32  2  0  0  0
 31 55  1  0  0  0
 33 34  1  0  0  0
 33 56  1  0  0  0
 33 57  1  0  0  0
 34 58  1  0  0  0
 34 59  1  0  0  0
 34 60  1  0  0  0
M  END
> <s_m_entry_id>
41066

> <s_m_entry_name>
dock_pv.183

> <s_m_Source_Path>
/home/csk/Desktop/cluster/DUD-E-result/tysy

> <s_m_Source_File>
dock_pv.maegz

> <i_m_Source_File_Index>
183

> <chembl_id>
CHEMBL44037

> <chembl_pref_name>
None

> <i_lp_mmshare_version>
53161

> <r_lp_tautomer_probability>
0.883938

> <s_lp_Force_Field>
OPLS_2005

> <r_lp_Energy>
23.462799

> <b_lp_Chiralities_Consistent>
1

> <s_lp_Variant>
CHEMBL1952_lig182-1

> <s_i_glide_gridfile>
glide-grid_1syn

> <i_i_glide_lignum>
361

> <i_i_glide_rotatable_bonds>
13

> <r_i_docking_score>
-8.11155221111007

> <r_i_glide_ligand_efficiency>
-0.238575065032649

> <r_i_glide_ligand_efficiency_sa>
-0.772890595261816

> <r_i_glide_ligand_efficiency_ln>
-1.79206940476707

> <r_i_glide_gscore>
-8.11155221111007

> <r_i_glide_lipo>
-3.30732682211021

> <r_i_glide_hbond>
-0.364881038854548

> <r_i_glide_metal>
0

> <r_i_glide_rewards>
-0.831381756405208

> <r_i_glide_evdw>
-51.386302947998

> <r_i_glide_ecoul>
-13.0060338973999

> <r_i_glide_erotb>
0.927123398283343

> <r_i_glide_esite>
-0.0148657600135566

> <r_i_glide_emodel>
-87.9152361147276

> <r_i_glide_energy>
-64.3923368453979

> <r_i_glide_einternal>
6.73373937606812

> <i_i_glide_confnum>
63

> <i_i_glide_posenum>
34

> <r_i_glide_eff_state_penalty>
0

> <s_user_duplicate_titles>
CHEMBL1952_lig182,CHEMBL1952_lig182,61039

> <i_f3d_flags>
0

> <s_m_subgroup_title>
dock_pv

> <s_m_subgroupid>
dock_pv

> <b_m_subgroup_collapsed>
1

$$$$
CHEMBL1952_lig409
                    3D
 Schrodinger Suite 2021-1.
 54 58  0  0  1  0            999 V2000
   13.3331   12.6209   37.7904 S   0  0  0  0  0  0
   16.5593   15.4366   32.5333 N   0  0  0  0  0  0
   15.6341   15.9931   31.6335 C   0  0  0  0  0  0
   12.7754   11.2934   36.7697 N   0  0  0  0  0  0
   14.8305   17.0714   32.0365 C   0  0  0  0  0  0
   12.9785   17.9767   29.1833 N   0  0  0  0  0  0
   13.9486   17.6474   31.1228 C   0  0  0  0  0  0
   15.5378   15.4956   30.3061 C   0  0  0  0  0  0
   13.8995   17.1626   29.7990 C   0  0  0  0  0  0
   14.3772   13.5606   36.6873 C   0  0  0  0  0  0
   12.5280   18.8581   30.1359 C   0  0  0  0  0  0
   13.0713   18.6818   31.3118 N   0  0  0  0  0  0
   14.6785   16.0913   29.3700 C   0  0  0  0  0  0
   14.1917   12.0583   38.8361 O   0  0  0  0  0  0
   12.1783   13.4584   38.1390 O   0  0  0  0  0  0
   16.7912   15.8290   33.9270 C   0  0  0  0  0  0
   11.5202    9.0283   35.5908 N   0  0  0  0  0  0
   15.7122   13.2050   36.4816 C   0  0  0  0  0  0
   13.8225   14.6277   35.9901 C   0  0  0  0  0  0
   11.3881   11.3926   36.2584 C   0  0  0  0  0  0
   13.1094    9.9242   37.2266 C   0  0  0  0  0  0
   15.9421   15.0284   34.9095 C   0  0  0  0  0  0
   17.4137   14.2983   32.1680 C   0  0  0  0  0  0
   16.4941   13.9398   35.5912 C   0  0  0  0  0  0
   14.6082   15.3796   35.1264 C   0  0  0  0  0  0
   16.3650   14.2945   29.8649 C   0  0  0  0  0  0
   12.9031    8.9343   36.0648 C   0  0  0  0  0  0
   11.1876   10.3760   35.1148 C   0  0  0  0  0  0
   17.6700   14.2271   30.6639 C   0  0  0  0  0  0
   14.8818   17.4866   33.0272 H   0  0  0  0  0  0
   12.6603   17.9762   28.2247 H   0  0  0  0  0  0
   11.7887   19.6041   29.8776 H   0  0  0  0  0  0
   14.6135   15.7227   28.3559 H   0  0  0  0  0  0
   17.8460   15.7289   34.1905 H   0  0  0  0  0  0
   16.5970   16.8944   34.0273 H   0  0  0  0  0  0
   11.3875    8.3529   34.8376 H   0  0  0  0  0  0
   16.1458   12.3694   37.0118 H   0  0  0  0  0  0
   12.7807   14.8868   36.1110 H   0  0  0  0  0  0
   10.6800   11.1485   37.0518 H   0  0  0  0  0  0
   11.2234   12.3977   35.8692 H   0  0  0  0  0  0
   14.1586    9.8930   37.5210 H   0  0  0  0  0  0
   12.4519    9.6296   38.0459 H   0  0  0  0  0  0
   18.2863   14.1235   32.8003 H   0  0  0  0  0  0
   16.7682   13.4327   32.3057 H   0  0  0  0  0  0
   17.5259   13.6611   35.4309 H   0  0  0  0  0  0
   14.1600   16.2135   34.6109 H   0  0  0  0  0  0
   15.7924   13.3757   29.9914 H   0  0  0  0  0  0
   16.5825   14.3601   28.8003 H   0  0  0  0  0  0
   13.5225    9.2129   35.2086 H   0  0  0  0  0  0
   13.1535    7.9085   36.3372 H   0  0  0  0  0  0
   11.8922   10.5742   34.3055 H   0  0  0  0  0  0
   10.1819   10.4058   34.6943 H   0  0  0  0  0  0
   18.3384   15.0376   30.3730 H   0  0  0  0  0  0
   18.2110   13.3101   30.4406 H   0  0  0  0  0  0
  1  4  1  0  0  0
  1 10  1  0  0  0
  1 14  2  0  0  0
  1 15  2  0  0  0
  2 16  1  0  0  0
  2  3  1  0  0  0
  2 23  1  0  0  0
  3  5  2  0  0  0
  3  8  1  0  0  0
  4 20  1  0  0  0
  4 21  1  0  0  0
  5  7  1  0  0  0
  5 30  1  0  0  0
  6  9  1  0  0  0
  6 11  1  0  0  0
  6 31  1  0  0  0
  7 12  1  0  0  0
  7  9  2  0  0  0
  8 13  2  0  0  0
  8 26  1  0  0  0
  9 13  1  0  0  0
 10 18  1  0  0  0
 10 19  2  0  0  0
 11 12  2  0  0  0
 11 32  1  0  0  0
 13 33  1  0  0  0
 16 22  1  0  0  0
 16 34  1  0  0  0
 16 35  1  0  0  0
 17 27  1  0  0  0
 17 28  1  0  0  0
 17 36  1  0  0  0
 18 24  2  0  0  0
 18 37  1  0  0  0
 19 25  1  0  0  0
 19 38  1  0  0  0
 20 28  1  0  0  0
 20 39  1  0  0  0
 20 40  1  0  0  0
 21 27  1  0  0  0
 21 41  1  0  0  0
 21 42  1  0  0  0
 22 25  2  0  0  0
 22 24  1  0  0  0
 23 29  1  0  0  0
 23 43  1  0  0  0
 23 44  1  0  0  0
 24 45  1  0  0  0
 25 46  1  0  0  0
 26 29  1  0  0  0
 26 47  1  0  0  0
 26 48  1  0  0  0
 27 49  1  0  0  0
 27 50  1  0  0  0
 28 51  1  0  0  0
 28 52  1  0  0  0
 29 53  1  0  0  0
 29 54  1  0  0  0
M  END
> <s_m_entry_id>
41067

> <s_m_entry_name>
dock_pv.184

> <s_m_Source_Path>
/home/csk/Desktop/cluster/DUD-E-result/tysy

> <s_m_Source_File>
dock_pv.maegz

> <i_m_Source_File_Index>
184

> <chembl_id>
CHEMBL353700

> <chembl_pref_name>
None

> <i_lp_mmshare_version>
53161

> <r_lp_tautomer_probability>
1

> <s_lp_Force_Field>
OPLS_2005

> <r_lp_Energy>
11.04497

> <b_lp_Chiralities_Consistent>
1

> <s_lp_Variant>
CHEMBL1952_lig409-1

> <s_i_glide_gridfile>
glide-grid_1syn

> <i_i_glide_lignum>
801

> <i_i_glide_rotatable_bonds>
4

> <r_i_docking_score>
-8.10743984549286

> <r_i_glide_ligand_efficiency>
-0.279566891223892

> <r_i_glide_ligand_efficiency_sa>
-0.858918062847771

> <r_i_glide_ligand_efficiency_ln>
-1.85639813768191

> <r_i_glide_gscore>
-8.10743984549286

> <r_i_glide_lipo>
-4.14078619203759

> <r_i_glide_hbond>
-0.32

> <r_i_glide_metal>
0

> <r_i_glide_rewards>
-1.26803089863277

> <r_i_glide_evdw>
-42.4243354797363

> <r_i_glide_ecoul>
-4.81973028182983

> <r_i_glide_erotb>
0.465553561438781

> <r_i_glide_esite>
0

> <r_i_glide_emodel>
-68.1285914103432

> <r_i_glide_energy>
-47.2440657615662

> <r_i_glide_einternal>
3.95508098602295

> <i_i_glide_confnum>
195

> <i_i_glide_posenum>
342

> <r_i_glide_eff_state_penalty>
0

> <s_user_duplicate_titles>
CHEMBL1952_lig409

> <i_f3d_flags>
0

> <s_m_subgroup_title>
dock_pv

> <s_m_subgroupid>
dock_pv

> <b_m_subgroup_collapsed>
1

$$$$
CHEMBL1952_lig319 
                    3D
 Schrodinger Suite 2021-1.
 53 56  0  0  1  0            999 V2000
   13.6921   18.2342   31.7884 N   0  0  0  0  0  0
   13.2986   17.8244   30.5263 C   0  0  0  0  0  0
   13.8946   16.8440   29.9357 N   0  0  0  0  0  0
   14.7023   17.7322   32.5694 C   0  0  0  0  0  0
   15.3575   16.6050   31.9008 C   0  0  0  0  0  0
   14.9123   16.2537   30.6253 C   0  0  0  0  0  0
   15.6786   15.2212   30.1695 N   0  0  0  0  0  0
   16.5943   14.9085   31.1439 C   0  0  0  0  0  0
   16.4159   15.7358   32.2563 C   0  0  0  0  0  0
   14.9751   18.2332   33.6580 O   0  0  0  0  0  0
   12.2421   18.5109   29.8907 N   0  0  0  0  0  0
   17.2194   15.6980   33.5479 C   0  0  0  0  0  0
   16.5855   14.7874   34.5920 C   0  0  0  0  0  0
   17.1759   13.5677   34.9331 C   0  0  0  0  0  0
   16.5436   12.7161   35.8400 C   0  0  0  0  0  0
   15.3171   13.0819   36.4194 C   0  0  0  0  0  0
   14.7562   14.3205   36.0967 C   0  0  0  0  0  0
   15.3838   15.1648   35.1912 C   0  0  0  0  0  0
   14.5828   12.1785   37.3815 C   0  0  0  0  0  0
   13.8028   12.6428   38.2161 O   0  0  0  0  0  0
   14.7793   10.8579   37.2234 N   0  0  0  0  0  0
   14.0648    9.7841   37.9296 C   0  0  2  0  0  0
   14.9638    9.0286   38.9435 C   0  0  0  0  0  0
   14.2471    7.8755   39.6763 C   0  0  0  0  0  0
   13.5654    6.8975   38.7035 C   0  0  0  0  0  0
   12.6142    7.6441   37.7506 C   0  0  0  0  0  0
   13.2782    8.8180   36.9838 C   0  0  2  0  0  0
   14.1571    8.2671   35.8319 C   0  0  0  0  0  0
   13.3925    7.8282   34.7912 O   0  0  0  0  0  0
   15.3898    8.2424   35.8460 O   0  0  0  0  0  0
   13.2238   19.0317   32.1917 H   0  0  0  0  0  0
   15.5743   14.7688   29.2721 H   0  0  0  0  0  0
   17.2983   14.1049   30.9786 H   0  0  0  0  0  0
   11.8579   18.1271   29.0425 H   0  0  0  0  0  0
   11.5369   18.9811   30.4389 H   0  0  0  0  0  0
   17.3113   16.6947   33.9829 H   0  0  0  0  0  0
   18.2445   15.3796   33.3499 H   0  0  0  0  0  0
   18.1105   13.2660   34.4821 H   0  0  0  0  0  0
   17.0207   11.7780   36.0845 H   0  0  0  0  0  0
   13.8183   14.6341   36.5343 H   0  0  0  0  0  0
   14.9208   16.1086   34.9531 H   0  0  0  0  0  0
   15.4313   10.5608   36.5104 H   0  0  0  0  0  0
   13.2821   10.2475   38.5357 H   0  0  0  0  0  0
   15.3681    9.7286   39.6745 H   0  0  0  0  0  0
   15.8105    8.6024   38.4119 H   0  0  0  0  0  0
   13.4992    8.2882   40.3553 H   0  0  0  0  0  0
   14.9574    7.3358   40.3050 H   0  0  0  0  0  0
   13.0111    6.1405   39.2604 H   0  0  0  0  0  0
   14.3214    6.3620   38.1262 H   0  0  0  0  0  0
   12.0972    6.9693   37.0646 H   0  0  0  0  0  0
   11.7550    8.0434   38.2934 H   0  0  0  0  0  0
   12.5180    9.3979   36.4580 H   0  0  0  0  0  0
   12.4398    7.8693   34.9267 H   0  0  0  0  0  0
  1  2  1  0  0  0
  1  4  1  0  0  0
  1 31  1  0  0  0
  2  3  2  0  0  0
  2 11  1  0  0  0
  3  6  1  0  0  0
  4  5  1  0  0  0
  4 10  2  0  0  0
  5  6  2  0  0  0
  5  9  1  0  0  0
  6  7  1  0  0  0
  7  8  1  0  0  0
  7 32  1  0  0  0
  8  9  2  0  0  0
  8 33  1  0  0  0
  9 12  1  0  0  0
 11 34  1  0  0  0
 11 35  1  0  0  0
 12 13  1  0  0  0
 12 36  1  0  0  0
 12 37  1  0  0  0
 13 14  2  0  0  0
 13 18  1  0  0  0
 14 15  1  0  0  0
 14 38  1  0  0  0
 15 16  2  0  0  0
 15 39  1  0  0  0
 16 17  1  0  0  0
 16 19  1  0  0  0
 17 18  2  0  0  0
 17 40  1  0  0  0
 18 41  1  0  0  0
 19 20  2  0  0  0
 19 21  1  0  0  0
 21 22  1  0  0  0
 21 42  1  0  0  0
 22 23  1  0  0  0
 22 27  1  0  0  0
 22 43  1  0  0  0
 23 24  1  0  0  0
 23 44  1  0  0  0
 23 45  1  0  0  0
 24 25  1  0  0  0
 24 46  1  0  0  0
 24 47  1  0  0  0
 25 26  1  0  0  0
 25 48  1  0  0  0
 25 49  1  0  0  0
 26 27  1  0  0  0
 26 50  1  0  0  0
 26 51  1  0  0  0
 27 28  1  0  0  0
 27 52  1  0  0  0
 28 29  1  0  0  0
 28 30  2  0  0  0
 29 53  1  0  0  0
M  END
> <s_m_entry_id>
41068

> <s_m_entry_name>
dock_pv.185

> <s_m_Source_Path>
/home/csk/Desktop/cluster/DUD-E-result/tysy

> <s_m_Source_File>
dock_pv.maegz

> <i_m_Source_File_Index>
185

> <chembl_id>
CHEMBL4442032

> <chembl_pref_name>
None

> <i_lp_mmshare_version>
53161

> <r_lp_tautomer_probability>
1

> <s_lp_Force_Field>
OPLS_2005

> <r_lp_Energy>
25.949193

> <b_lp_Chiralities_Consistent>
1

> <s_lp_Variant>
CHEMBL1952_lig319 -1

> <s_i_glide_gridfile>
glide-grid_1syn

> <i_i_glide_lignum>
591

> <i_i_glide_rotatable_bonds>
7

> <r_i_docking_score>
-8.09153581153633

> <r_i_glide_ligand_efficiency>
-0.269717860384544

> <r_i_glide_ligand_efficiency_sa>
-0.838076102273027

> <r_i_glide_ligand_efficiency_ln>
-1.83848510072513

> <r_i_glide_gscore>
-8.09153581153633

> <r_i_glide_lipo>
-3.02917671645521

> <r_i_glide_hbond>
-0.124407959881247

> <r_i_glide_metal>
0

> <r_i_glide_rewards>
-1.690176654535

> <r_i_glide_evdw>
-48.8601951599121

> <r_i_glide_ecoul>
-9.87074661254883

> <r_i_glide_erotb>
0.704753185130174

> <r_i_glide_esite>
-0.0289059159171179

> <r_i_glide_emodel>
-86.9304947836662

> <r_i_glide_energy>
-58.7309417724609

> <r_i_glide_einternal>
1.99040412902832

> <i_i_glide_confnum>
53

> <i_i_glide_posenum>
385

> <r_i_glide_eff_state_penalty>
0

> <s_user_duplicate_titles>
CHEMBL1952_lig319 

> <i_f3d_flags>
0

> <s_m_subgroup_title>
dock_pv

> <s_m_subgroupid>
dock_pv

> <b_m_subgroup_collapsed>
1

$$$$
CHEMBL1952_lig310 
                    3D
 Schrodinger Suite 2021-1.
 47 50  0  0  1  0            999 V2000
   13.5885   18.2478   31.5670 N   0  0  0  0  0  0
   13.2305   17.8264   30.3005 C   0  0  0  0  0  0
   13.8438   16.8429   29.7317 N   0  0  0  0  0  0
   14.5915   17.7693   32.3694 C   0  0  0  0  0  0
   15.2832   16.6535   31.7183 C   0  0  0  0  0  0
   14.8619   16.2761   30.4435 C   0  0  0  0  0  0
   15.6683   15.2646   30.0041 N   0  0  0  0  0  0
   16.5889   14.9989   30.9898 C   0  0  0  0  0  0
   16.3673   15.8273   32.0933 C   0  0  0  0  0  0
   14.8323   18.2831   33.4583 O   0  0  0  0  0  0
   12.1928   18.5093   29.6363 N   0  0  0  0  0  0
   17.1662   15.8485   33.3867 C   0  0  0  0  0  0
   16.5511   14.9485   34.4560 C   0  0  0  0  0  0
   15.3640   15.3328   35.0833 C   0  0  0  0  0  0
   14.7467   14.4824   35.9918 C   0  0  0  0  0  0
   15.3055   13.2361   36.2951 C   0  0  0  0  0  0
   16.5256   12.8745   35.6980 C   0  0  0  0  0  0
   17.1487   13.7300   34.7896 C   0  0  0  0  0  0
   14.5918   12.3234   37.2662 C   0  0  0  0  0  0
   13.8560   12.7945   38.1357 O   0  0  0  0  0  0
   14.7996   11.0020   37.0770 N   0  0  0  0  0  0
   14.3608    9.9017   37.8473 C   0  0  0  0  0  0
   14.0466   10.0433   39.2112 C   0  0  0  0  0  0
   13.6452    8.9483   39.9716 C   0  0  0  0  0  0
   13.5660    7.6893   39.3878 C   0  0  0  0  0  0
   13.8747    7.5265   38.0403 C   0  0  0  0  0  0
   14.2607    8.6211   37.2464 C   0  0  0  0  0  0
   14.5774    8.3815   35.7864 C   0  0  0  0  0  0
   13.7927    7.4368   35.1903 O   0  0  0  0  0  0
   15.4479    9.0132   35.1899 O   0  0  0  0  0  0
   13.1036   19.0424   31.9493 H   0  0  0  0  0  0
   15.5913   14.8020   29.1112 H   0  0  0  0  0  0
   17.3289   14.2251   30.8382 H   0  0  0  0  0  0
   11.8254   18.1341   28.7741 H   0  0  0  0  0  0
   11.4898   19.0126   30.1610 H   0  0  0  0  0  0
   17.2318   16.8642   33.7797 H   0  0  0  0  0  0
   18.1999   15.5498   33.1991 H   0  0  0  0  0  0
   14.9002   16.2784   34.8555 H   0  0  0  0  0  0
   13.8198   14.7990   36.4472 H   0  0  0  0  0  0
   17.0061   11.9316   35.9245 H   0  0  0  0  0  0
   18.0735   13.4250   34.3178 H   0  0  0  0  0  0
   15.2841   10.7475   36.2281 H   0  0  0  0  0  0
   14.1282   10.9978   39.7072 H   0  0  0  0  0  0
   13.4013    9.0778   41.0153 H   0  0  0  0  0  0
   13.2691    6.8378   39.9820 H   0  0  0  0  0  0
   13.8160    6.5266   37.6295 H   0  0  0  0  0  0
   13.0711    7.1749   35.7655 H   0  0  0  0  0  0
  1  2  1  0  0  0
  1  4  1  0  0  0
  1 31  1  0  0  0
  2  3  2  0  0  0
  2 11  1  0  0  0
  3  6  1  0  0  0
  4  5  1  0  0  0
  4 10  2  0  0  0
  5  6  2  0  0  0
  5  9  1  0  0  0
  6  7  1  0  0  0
  7  8  1  0  0  0
  7 32  1  0  0  0
  8  9  2  0  0  0
  8 33  1  0  0  0
  9 12  1  0  0  0
 11 34  1  0  0  0
 11 35  1  0  0  0
 12 13  1  0  0  0
 12 36  1  0  0  0
 12 37  1  0  0  0
 13 14  2  0  0  0
 13 18  1  0  0  0
 14 15  1  0  0  0
 14 38  1  0  0  0
 15 16  2  0  0  0
 15 39  1  0  0  0
 16 17  1  0  0  0
 16 19  1  0  0  0
 17 18  2  0  0  0
 17 40  1  0  0  0
 18 41  1  0  0  0
 19 20  2  0  0  0
 19 21  1  0  0  0
 21 22  1  0  0  0
 21 42  1  0  0  0
 22 23  2  0  0  0
 22 27  1  0  0  0
 23 24  1  0  0  0
 23 43  1  0  0  0
 24 25  2  0  0  0
 24 44  1  0  0  0
 25 26  1  0  0  0
 25 45  1  0  0  0
 26 27  2  0  0  0
 26 46  1  0  0  0
 27 28  1  0  0  0
 28 29  1  0  0  0
 28 30  2  0  0  0
 29 47  1  0  0  0
M  END
> <s_m_entry_id>
41069

> <s_m_entry_name>
dock_pv.186

> <s_m_Source_Path>
/home/csk/Desktop/cluster/DUD-E-result/tysy

> <s_m_Source_File>
dock_pv.maegz

> <i_m_Source_File_Index>
186

> <chembl_id>
CHEMBL4536417

> <chembl_pref_name>
None

> <i_lp_mmshare_version>
53161

> <r_lp_tautomer_probability>
1

> <s_lp_Force_Field>
OPLS_2005

> <r_lp_Energy>
35.307342

> <b_lp_Chiralities_Consistent>
1

> <s_lp_Variant>
CHEMBL1952_lig310 -1

> <s_i_glide_gridfile>
glide-grid_1syn

> <i_i_glide_lignum>
581

> <i_i_glide_rotatable_bonds>
7

> <r_i_docking_score>
-8.0897130002179

> <r_i_glide_ligand_efficiency>
-0.269657100007263

> <r_i_glide_ligand_efficiency_sa>
-0.837887305653879

> <r_i_glide_ligand_efficiency_ln>
-1.83807093813246

> <r_i_glide_gscore>
-8.0897130002179

> <r_i_glide_lipo>
-3.00280734723642

> <r_i_glide_hbond>
-0.192370125704926

> <r_i_glide_metal>
0

> <r_i_glide_rewards>
-1.82606245649869

> <r_i_glide_evdw>
-52.5831260681152

> <r_i_glide_ecoul>
-7.52566146850586

> <r_i_glide_erotb>
0.723912557481141

> <r_i_glide_esite>
-0.0343801045773648

> <r_i_glide_emodel>
-87.8354889644139

> <r_i_glide_energy>
-60.1087875366211

> <r_i_glide_einternal>
3.20645236968994

> <i_i_glide_confnum>
94

> <i_i_glide_posenum>
40

> <r_i_glide_eff_state_penalty>
0

> <s_user_duplicate_titles>
CHEMBL1952_lig310 

> <i_f3d_flags>
0

> <s_m_subgroup_title>
dock_pv

> <s_m_subgroupid>
dock_pv

> <b_m_subgroup_collapsed>
1

$$$$
CHEMBL1952_lig102
                    3D
 Schrodinger Suite 2021-1.
 52 54  0  0  1  0            999 V2000
   12.5938    8.2470   35.5912 N   0  0  0  0  0  0
   13.4089   11.2925   37.3011 C   0  0  0  0  0  0
   13.9669   10.1713   36.4514 C   0  0  2  0  0  0
   12.6767    9.6864   35.7484 C   0  0  2  0  0  0
   14.7834    9.0733   37.2232 C   0  0  0  0  0  0
   14.3186    7.7606   37.1490 N   0  0  0  0  0  0
   13.3437    7.3891   36.4244 C   0  0  0  0  0  0
   11.5978   10.1982   36.5768 N   0  0  0  0  0  0
   12.0706   11.2105   37.3761 C   0  0  0  0  0  0
   15.8936   15.9757   33.4162 C   0  0  0  0  0  0
   15.0094   15.8280   32.4124 N   0  0  0  0  0  0
   14.4537   12.4685   38.1259 S   0  0  0  0  0  0
   15.3998   15.2079   30.0569 C   0  0  0  0  0  0
   15.1157   16.3594   31.0501 C   0  0  1  0  0  0
   15.7916    9.4279   37.8345 O   0  0  0  0  0  0
   15.5541   15.2062   34.6675 C   0  0  0  0  0  0
   12.5397   18.7469   29.1909 C   0  0  0  0  0  0
   16.9331   16.6281   33.3311 O   0  0  0  0  0  0
   14.6010   14.7693   29.2574 O   0  0  0  0  0  0
   12.9982    6.0271   36.4429 N   0  0  0  0  0  0
   12.5920   19.8281   28.6140 O   0  0  0  0  0  0
   13.8264   17.1723   30.7512 C   0  0  0  0  0  0
   14.8794   13.5370   36.7930 C   0  0  0  0  0  0
   16.5330   14.4088   35.2727 C   0  0  0  0  0  0
   14.2523   15.2150   35.1910 C   0  0  0  0  0  0
   13.7404   17.8173   29.3476 C   0  0  0  0  0  0
   16.6767   14.7619   30.2170 O   0  0  0  0  0  0
   11.3924   18.2280   29.7102 O   0  0  0  0  0  0
   13.9091   14.3583   36.2312 C   0  0  0  0  0  0
   16.1921   13.5732   36.3336 C   0  0  0  0  0  0
   11.0568   12.0479   38.1270 C   0  0  0  0  0  0
   14.6683   10.5520   35.7083 H   0  0  0  0  0  0
   12.5911   10.1587   34.7702 H   0  0  0  0  0  0
   12.6839    5.6044   35.5825 H   0  0  0  0  0  0
   10.8445   10.4585   35.9568 H   0  0  0  0  0  0
   14.2293   15.2090   32.5663 H   0  0  0  0  0  0
   15.9698   17.0283   30.9940 H   0  0  0  0  0  0
   13.6421    5.4043   36.9074 H   0  0  0  0  0  0
   11.8997    7.8539   34.9604 H   0  0  0  0  0  0
   13.7325   17.9638   31.4982 H   0  0  0  0  0  0
   12.9555   16.5301   30.9000 H   0  0  0  0  0  0
   17.5481   14.3981   34.8984 H   0  0  0  0  0  0
   13.4851   15.8419   34.7582 H   0  0  0  0  0  0
   14.6332   18.4055   29.1469 H   0  0  0  0  0  0
   13.6778   17.0629   28.5639 H   0  0  0  0  0  0
   16.8650   14.0366   29.6166 H   0  0  0  0  0  0
   10.6583   18.8626   29.6628 H   0  0  0  0  0  0
   12.8948   14.3390   36.6015 H   0  0  0  0  0  0
   16.9441   12.9447   36.7895 H   0  0  0  0  0  0
   10.4815   11.4238   38.8105 H   0  0  0  0  0  0
   11.5478   12.8278   38.7083 H   0  0  0  0  0  0
   10.3676   12.5272   37.4317 H   0  0  0  0  0  0
  1  4  1  0  0  0
  1 39  1  0  0  0
  1  7  1  0  0  0
  2  3  1  0  0  0
  2 12  1  0  0  0
  2  9  2  0  0  0
  3  4  1  0  0  0
  3 32  1  0  0  0
  3  5  1  0  0  0
  4  8  1  0  0  0
  4 33  1  0  0  0
  5  6  1  0  0  0
  5 15  2  0  0  0
  6  7  2  0  0  0
  7 20  1  0  0  0
  8  9  1  0  0  0
  8 35  1  0  0  0
  9 31  1  0  0  0
 10 16  1  0  0  0
 10 11  1  0  0  0
 10 18  2  0  0  0
 11 14  1  0  0  0
 11 36  1  0  0  0
 12 23  1  0  0  0
 13 14  1  0  0  0
 13 19  2  0  0  0
 13 27  1  0  0  0
 14 22  1  0  0  0
 14 37  1  0  0  0
 16 24  1  0  0  0
 16 25  2  0  0  0
 17 26  1  0  0  0
 17 21  2  0  0  0
 17 28  1  0  0  0
 20 38  1  0  0  0
 20 34  1  0  0  0
 22 26  1  0  0  0
 22 40  1  0  0  0
 22 41  1  0  0  0
 23 29  2  0  0  0
 23 30  1  0  0  0
 24 30  2  0  0  0
 24 42  1  0  0  0
 25 29  1  0  0  0
 25 43  1  0  0  0
 26 44  1  0  0  0
 26 45  1  0  0  0
 27 46  1  0  0  0
 28 47  1  0  0  0
 29 48  1  0  0  0
 30 49  1  0  0  0
 31 50  1  0  0  0
 31 51  1  0  0  0
 31 52  1  0  0  0
M  END
> <s_m_entry_id>
41070

> <s_m_entry_name>
dock_pv.187

> <s_m_Source_Path>
/home/csk/Desktop/cluster/DUD-E-result/tysy

> <s_m_Source_File>
dock_pv.maegz

> <i_m_Source_File_Index>
187

> <chembl_id>
CHEMBL336487

> <chembl_pref_name>
None

> <i_lp_mmshare_version>
53161

> <r_lp_tautomer_probability>
0.615378461538462

> <s_lp_Force_Field>
OPLS_2005

> <r_lp_Energy>
21.960141

> <b_lp_Chiralities_Consistent>
1

> <s_lp_Variant>
CHEMBL1952_lig102-3

> <s_i_glide_gridfile>
glide-grid_1syn

> <i_i_glide_lignum>
192

> <i_i_glide_rotatable_bonds>
11

> <r_i_docking_score>
-8.08327901207825

> <r_i_glide_ligand_efficiency>
-0.260750935873492

> <r_i_glide_ligand_efficiency_sa>
-0.819117944108323

> <r_i_glide_ligand_efficiency_ln>
-1.82302713997499

> <r_i_glide_gscore>
-8.08327901207825

> <r_i_glide_lipo>
-2.37621334299125

> <r_i_glide_hbond>
-0.576759445993673

> <r_i_glide_metal>
0

> <r_i_glide_rewards>
-1.53983984574592

> <r_i_glide_evdw>
-42.1960220336914

> <r_i_glide_ecoul>
-15.6160717010498

> <r_i_glide_erotb>
0.900101540785158

> <r_i_glide_esite>
-0.0383560612905269

> <r_i_glide_emodel>
-81.3902028361277

> <r_i_glide_energy>
-57.8120937347412

> <r_i_glide_einternal>
9.14697265625

> <i_i_glide_confnum>
105

> <i_i_glide_posenum>
191

> <r_i_glide_eff_state_penalty>
0

> <s_user_duplicate_titles>
CHEMBL1952_lig102

> <i_f3d_flags>
0

> <s_m_subgroup_title>
dock_pv

> <s_m_subgroupid>
dock_pv

> <b_m_subgroup_collapsed>
1

$$$$
CHEMBL1952_lig102
                    3D
 Schrodinger Suite 2021-1.
 52 54  0  0  1  0            999 V2000
   13.7355   17.0858   30.4409 N   0  0  0  0  0  0
   16.4695   15.7955   32.4085 C   0  0  0  0  0  0
   15.1264   16.4874   32.3486 C   0  0  2  0  0  0
   15.0717   16.6556   30.8359 C   0  0  1  0  0  0
   14.7683   17.8520   33.0047 C   0  0  0  0  0  0
   13.6950   18.5086   32.3799 N   0  0  0  0  0  0
   13.2431   18.1804   31.2215 C   0  0  0  0  0  0
   15.5682   15.3709   30.3817 N   0  0  0  0  0  0
   16.5701   15.0468   31.2883 C   0  0  0  0  0  0
   15.2416   11.0708   36.6956 C   0  0  0  0  0  0
   14.5918   11.3304   37.8448 N   0  0  0  0  0  0
   17.6014   15.8308   33.7889 S   0  0  0  0  0  0
   14.5840    9.1425   39.1482 C   0  0  0  0  0  0
   13.8202   10.4161   38.7001 C   0  0  1  0  0  0
   15.3920   18.2281   33.9910 O   0  0  0  0  0  0
   15.8706   12.2763   36.0384 C   0  0  0  0  0  0
   12.3244   13.4059   40.7918 C   0  0  0  0  0  0
   15.3280    9.9495   36.1932 O   0  0  0  0  0  0
   15.7919    9.0279   39.1618 O   0  0  0  0  0  0
   12.1920   18.9548   30.6963 N   0  0  0  0  0  0
   11.3921   13.4278   41.5909 O   0  0  0  0  0  0
   13.3062   11.2135   39.9336 C   0  0  0  0  0  0
   16.9758   14.4701   34.7144 C   0  0  0  0  0  0
   15.2599   13.5393   36.1187 C   0  0  0  0  0  0
   17.0591   12.1372   35.3083 C   0  0  0  0  0  0
   12.4176   12.4402   39.6096 C   0  0  0  0  0  0
   13.6935    8.1883   39.5484 O   0  0  0  0  0  0
   13.4066   14.2283   40.8785 O   0  0  0  0  0  0
   17.6158   13.2332   34.6521 C   0  0  0  0  0  0
   15.8109   14.6315   35.4584 C   0  0  0  0  0  0
   17.6467   14.0896   30.8373 C   0  0  0  0  0  0
   14.3435   15.8277   32.7192 H   0  0  0  0  0  0
   15.7742   17.4215   30.5066 H   0  0  0  0  0  0
   11.4564   18.4918   30.1827 H   0  0  0  0  0  0
   15.8995   15.5160   29.4392 H   0  0  0  0  0  0
   14.6909   12.2669   38.1997 H   0  0  0  0  0  0
   12.9684   10.0941   38.0977 H   0  0  0  0  0  0
   11.7865   19.6439   31.3124 H   0  0  0  0  0  0
   13.6592   17.2572   29.4493 H   0  0  0  0  0  0
   14.1593   11.5305   40.5369 H   0  0  0  0  0  0
   12.7257   10.5539   40.5817 H   0  0  0  0  0  0
   14.3356   13.6859   36.6582 H   0  0  0  0  0  0
   17.5507   11.1771   35.2300 H   0  0  0  0  0  0
   12.7850   12.9968   38.7477 H   0  0  0  0  0  0
   11.4137   12.1082   39.3410 H   0  0  0  0  0  0
   12.7794    8.4426   39.4147 H   0  0  0  0  0  0
   14.0326   14.0966   40.1634 H   0  0  0  0  0  0
   18.5193   13.1104   34.0705 H   0  0  0  0  0  0
   15.3222   15.5948   35.5032 H   0  0  0  0  0  0
   18.3811   13.9131   31.6237 H   0  0  0  0  0  0
   17.2211   13.1288   30.5454 H   0  0  0  0  0  0
   18.1700   14.5316   29.9917 H   0  0  0  0  0  0
  1  4  1  0  0  0
  1 39  1  0  0  0
  1  7  1  0  0  0
  2  3  1  0  0  0
  2 12  1  0  0  0
  2  9  2  0  0  0
  3  4  1  0  0  0
  3 32  1  0  0  0
  3  5  1  0  0  0
  4  8  1  0  0  0
  4 33  1  0  0  0
  5  6  1  0  0  0
  5 15  2  0  0  0
  6  7  2  0  0  0
  7 20  1  0  0  0
  8  9  1  0  0  0
  8 35  1  0  0  0
  9 31  1  0  0  0
 10 16  1  0  0  0
 10 11  1  0  0  0
 10 18  2  0  0  0
 11 14  1  0  0  0
 11 36  1  0  0  0
 12 23  1  0  0  0
 13 14  1  0  0  0
 13 19  2  0  0  0
 13 27  1  0  0  0
 14 22  1  0  0  0
 14 37  1  0  0  0
 16 24  1  0  0  0
 16 25  2  0  0  0
 17 26  1  0  0  0
 17 21  2  0  0  0
 17 28  1  0  0  0
 20 38  1  0  0  0
 20 34  1  0  0  0
 22 26  1  0  0  0
 22 40  1  0  0  0
 22 41  1  0  0  0
 23 29  2  0  0  0
 23 30  1  0  0  0
 24 30  2  0  0  0
 24 42  1  0  0  0
 25 29  1  0  0  0
 25 43  1  0  0  0
 26 44  1  0  0  0
 26 45  1  0  0  0
 27 46  1  0  0  0
 28 47  1  0  0  0
 29 48  1  0  0  0
 30 49  1  0  0  0
 31 50  1  0  0  0
 31 51  1  0  0  0
 31 52  1  0  0  0
M  END
> <s_m_entry_id>
41071

> <s_m_entry_name>
dock_pv.188

> <s_m_Source_Path>
/home/csk/Desktop/cluster/DUD-E-result/tysy

> <s_m_Source_File>
dock_pv.maegz

> <i_m_Source_File_Index>
188

> <chembl_id>
CHEMBL336487

> <chembl_pref_name>
None

> <i_lp_mmshare_version>
53161

> <r_lp_tautomer_probability>
0.615378461538462

> <s_lp_Force_Field>
OPLS_2005

> <r_lp_Energy>
36.446474

> <b_lp_Chiralities_Consistent>
1

> <s_lp_Variant>
CHEMBL1952_lig102-1

> <s_i_glide_gridfile>
glide-grid_1syn

> <i_i_glide_lignum>
190

> <i_i_glide_rotatable_bonds>
11

> <r_i_docking_score>
-8.08149217600615

> <r_i_glide_ligand_efficiency>
-0.260693296000198

> <r_i_glide_ligand_efficiency_sa>
-0.818936875325759

> <r_i_glide_ligand_efficiency_ln>
-1.82262415368078

> <r_i_glide_gscore>
-8.08149217600615

> <r_i_glide_lipo>
-2.82471063624362

> <r_i_glide_hbond>
-0.467012690953946

> <r_i_glide_metal>
0

> <r_i_glide_rewards>
-1.47941652169877

> <r_i_glide_evdw>
-51.576545715332

> <r_i_glide_ecoul>
-10.3903980255127

> <r_i_glide_erotb>
0.900101540785158

> <r_i_glide_esite>
-0.0730668783014643

> <r_i_glide_emodel>
-89.1941656757805

> <r_i_glide_energy>
-61.9669437408447

> <r_i_glide_einternal>
7.42618179321289

> <i_i_glide_confnum>
242

> <i_i_glide_posenum>
90

> <r_i_glide_eff_state_penalty>
0

> <s_user_duplicate_titles>
CHEMBL1952_lig102

> <i_f3d_flags>
0

> <s_m_subgroup_title>
dock_pv

> <s_m_subgroupid>
dock_pv

> <b_m_subgroup_collapsed>
1

$$$$
CHEMBL1952_lig179
                    3D
 Schrodinger Suite 2021-1.
 38 41  0  0  1  0            999 V2000
   17.7512   10.3061   35.8798 C   0  0  0  0  0  0
   17.6266   11.7318   35.3715 C   0  0  0  0  0  0
   18.5747   12.2204   34.4738 C   0  0  0  0  0  0
   18.4454   13.5016   33.9459 C   0  0  0  0  0  0
   17.3313   14.2718   34.2781 C   0  0  0  0  0  0
   17.0501   15.8320   33.4905 S   0  0  0  0  0  0
   16.3040   15.4355   31.9157 C   0  0  0  0  0  0
   16.7810   14.3319   31.2082 C   0  0  0  0  0  0
   16.2403   13.9554   29.9910 C   0  0  0  0  0  0
   15.2809   14.7071   29.3352 C   0  0  0  0  0  0
   14.8101   15.8331   30.0055 C   0  0  0  0  0  0
   13.8718   16.7494   29.5859 N   0  0  0  0  0  0
   13.6235   17.6410   30.5903 C   0  0  0  0  0  0
   12.7281   18.6297   30.5317 N   0  0  0  0  0  0
   12.6768   19.3636   31.6635 C   0  0  0  0  0  0
   11.7924   20.4248   31.6814 N   0  0  0  0  0  0
   13.3907   19.1781   32.7894 N   0  0  0  0  0  0
   14.2883   18.1739   32.8049 C   0  0  0  0  0  0
   14.9890   18.0476   33.9890 N   0  0  0  0  0  0
   14.4692   17.3309   31.6891 C   0  0  0  0  0  0
   15.2662   16.2078   31.3165 C   0  0  0  0  0  0
   16.4135   13.8136   35.2239 C   0  0  0  0  0  0
   16.5574   12.5378   35.7688 C   0  0  0  0  0  0
   16.8260    9.9558   36.3416 H   0  0  0  0  0  0
   18.5712   10.2281   36.5977 H   0  0  0  0  0  0
   17.9754    9.6367   35.0457 H   0  0  0  0  0  0
   19.3921   11.5936   34.1529 H   0  0  0  0  0  0
   19.1761   13.8572   33.2316 H   0  0  0  0  0  0
   17.5607   13.7064   31.6060 H   0  0  0  0  0  0
   16.5919   13.0291   29.5812 H   0  0  0  0  0  0
   14.8967   14.4073   28.3705 H   0  0  0  0  0  0
   13.4178   16.7673   28.6850 H   0  0  0  0  0  0
   11.6700   20.8707   32.5776 H   0  0  0  0  0  0
   11.0468   20.3842   30.9935 H   0  0  0  0  0  0
   15.6797   17.3147   34.0758 H   0  0  0  0  0  0
   14.7732   18.6954   34.7307 H   0  0  0  0  0  0
   15.5623   14.4215   35.4966 H   0  0  0  0  0  0
   15.8248   12.1732   36.4730 H   0  0  0  0  0  0
  1  2  1  0  0  0
  1 24  1  0  0  0
  1 25  1  0  0  0
  1 26  1  0  0  0
  2  3  2  0  0  0
  2 23  1  0  0  0
  3  4  1  0  0  0
  3 27  1  0  0  0
  4  5  2  0  0  0
  4 28  1  0  0  0
  5  6  1  0  0  0
  5 22  1  0  0  0
  6  7  1  0  0  0
  7  8  2  0  0  0
  7 21  1  0  0  0
  8  9  1  0  0  0
  8 29  1  0  0  0
  9 10  2  0  0  0
  9 30  1  0  0  0
 10 11  1  0  0  0
 10 31  1  0  0  0
 11 12  1  0  0  0
 11 21  2  0  0  0
 12 13  1  0  0  0
 12 32  1  0  0  0
 13 14  2  0  0  0
 13 20  1  0  0  0
 14 15  1  0  0  0
 15 16  1  0  0  0
 15 17  2  0  0  0
 16 33  1  0  0  0
 16 34  1  0  0  0
 17 18  1  0  0  0
 18 19  1  0  0  0
 18 20  2  0  0  0
 19 35  1  0  0  0
 19 36  1  0  0  0
 20 21  1  0  0  0
 22 23  2  0  0  0
 22 37  1  0  0  0
 23 38  1  0  0  0
M  END
> <s_m_entry_id>
41072

> <s_m_entry_name>
dock_pv.189

> <s_m_Source_Path>
/home/csk/Desktop/cluster/DUD-E-result/tysy

> <s_m_Source_File>
dock_pv.maegz

> <i_m_Source_File_Index>
189

> <chembl_id>
CHEMBL1093100

> <chembl_pref_name>
None

> <i_lp_mmshare_version>
53161

> <r_lp_tautomer_probability>
1

> <s_lp_Force_Field>
OPLS_2005

> <r_lp_Energy>
10.4116

> <b_lp_Chiralities_Consistent>
1

> <s_lp_Variant>
CHEMBL1952_lig179-1

> <s_i_glide_gridfile>
glide-grid_1syn

> <i_i_glide_lignum>
356

> <i_i_glide_rotatable_bonds>
2

> <r_i_docking_score>
-8.08099234490501

> <r_i_glide_ligand_efficiency>
-0.35134749325674

> <r_i_glide_ligand_efficiency_sa>
-0.999185533482149

> <r_i_glide_ligand_efficiency_ln>
-1.95405722338543

> <r_i_glide_gscore>
-8.08099234490501

> <r_i_glide_lipo>
-3.59749725499003

> <r_i_glide_hbond>
-0.32

> <r_i_glide_metal>
0

> <r_i_glide_rewards>
-1.91907817357398

> <r_i_glide_evdw>
-45.0935668945312

> <r_i_glide_ecoul>
-2.34351229667664

> <r_i_glide_erotb>
0.361788272887047

> <r_i_glide_esite>
0

> <r_i_glide_emodel>
-68.8234863872958

> <r_i_glide_energy>
-47.4370791912079

> <r_i_glide_einternal>
0.922699153423309

> <i_i_glide_confnum>
4

> <i_i_glide_posenum>
275

> <r_i_glide_eff_state_penalty>
0

> <s_user_duplicate_titles>
CHEMBL1952_lig179,619596

> <i_f3d_flags>
0

> <s_m_subgroup_title>
dock_pv

> <s_m_subgroupid>
dock_pv

> <b_m_subgroup_collapsed>
1

$$$$
CHEMBL1952_lig257
                    3D
 Schrodinger Suite 2021-1.
 57 59  0  0  1  0            999 V2000
   16.0130   11.9860   36.1272 C   0  0  0  0  0  0
   15.4791   10.7684   36.6738 C   0  0  0  0  0  0
   16.1920    9.8280   37.0232 O   0  0  0  0  0  0
   14.1376   10.7546   36.7482 N   0  0  0  0  0  0
   13.3186    9.6218   37.2011 C   0  0  1  0  0  0
   12.0424   10.1632   37.9151 C   0  0  0  0  0  0
   13.0185    8.6353   36.0395 C   0  0  0  0  0  0
   12.0348    7.7603   36.3910 O   0  0  0  0  0  0
   13.5922    8.6280   34.9693 O   0  0  0  0  0  0
   12.2704   11.2048   39.0412 C   0  0  0  0  0  0
   13.0430   10.6786   40.2544 C   0  0  0  0  0  0
   13.2696   11.6530   41.1788 O   0  0  0  0  0  0
   13.4143    9.5180   40.4034 O   0  0  0  0  0  0
   13.5215   18.4980   31.9969 N   0  0  0  0  0  0
   13.2632   18.2280   30.7750 C   0  0  0  0  0  0
   13.8843   17.2365   30.0401 N   0  0  0  0  0  0
   14.5196   17.8275   32.7145 C   0  0  0  0  0  0
   14.8559   18.0772   33.8718 O   0  0  0  0  0  0
   15.2318   16.7161   31.9550 C   0  0  0  0  0  0
   14.8787   16.4494   30.6268 C   0  0  0  0  0  0
   15.5159   15.4405   29.9138 C   0  0  0  0  0  0
   16.5142   14.6879   30.5344 C   0  0  0  0  0  0
   16.8889   14.9436   31.8576 C   0  0  0  0  0  0
   16.2468   15.9710   32.5651 C   0  0  0  0  0  0
   17.9909   14.0754   32.4712 C   0  0  0  0  0  0
   18.1396   14.2093   33.9231 N   0  0  0  0  0  0
   12.2131   19.0428   30.0592 C   0  0  0  0  0  0
   17.3109   13.5710   34.8095 C   0  0  0  0  0  0
   17.4851   11.8863   35.1910 S   0  0  0  0  0  0
   15.5430   13.2102   36.2295 N   0  0  0  0  0  0
   16.2431   14.0841   35.5378 C   0  0  0  0  0  0
   19.1443   15.1520   34.3972 C   0  0  0  0  0  0
   20.5919   14.6280   34.4181 C   0  0  0  0  0  0
   21.1337   14.2280   33.1804 O   0  0  0  0  0  0
   13.6305   11.5488   36.3901 H   0  0  0  0  0  0
   13.8983    9.0438   37.9218 H   0  0  0  0  0  0
   11.4809    9.3297   38.3411 H   0  0  0  0  0  0
   11.3787   10.6129   37.1740 H   0  0  0  0  0  0
   11.8032    7.2118   35.6344 H   0  0  0  0  0  0
   11.3033   11.5619   39.3952 H   0  0  0  0  0  0
   12.7906   12.0801   38.6514 H   0  0  0  0  0  0
   13.7919   11.3092   41.9065 H   0  0  0  0  0  0
   13.6419   17.0990   29.0739 H   0  0  0  0  0  0
   15.2410   15.2286   28.8917 H   0  0  0  0  0  0
   16.9920   13.8877   29.9910 H   0  0  0  0  0  0
   16.5369   16.1921   33.5820 H   0  0  0  0  0  0
   18.9274   14.3179   31.9679 H   0  0  0  0  0  0
   17.7960   13.0278   32.2347 H   0  0  0  0  0  0
   11.7920   19.8168   30.7021 H   0  0  0  0  0  0
   12.6355   19.5406   29.1871 H   0  0  0  0  0  0
   11.3920   18.4112   29.7231 H   0  0  0  0  0  0
   15.9217   15.1148   35.5336 H   0  0  0  0  0  0
   19.1412   16.0465   33.7736 H   0  0  0  0  0  0
   18.8832   15.6212   35.3448 H   0  0  0  0  0  0
   21.2445   15.0278   35.1910 H   0  0  0  0  0  0
   20.4777   13.6339   34.8489 H   0  0  0  0  0  0
   21.2595   13.2558   33.1684 H   0  0  0  0  0  0
  1  2  1  0  0  0
  1 29  1  0  0  0
  1 30  2  0  0  0
  2  3  2  0  0  0
  2  4  1  0  0  0
  4  5  1  0  0  0
  4 35  1  0  0  0
  5  6  1  0  0  0
  5  7  1  0  0  0
  5 36  1  0  0  0
  6 10  1  0  0  0
  6 37  1  0  0  0
  6 38  1  0  0  0
  7  9  2  0  0  0
  7  8  1  0  0  0
  8 39  1  0  0  0
 10 11  1  0  0  0
 10 40  1  0  0  0
 10 41  1  0  0  0
 11 12  1  0  0  0
 11 13  2  0  0  0
 12 42  1  0  0  0
 14 15  2  0  0  0
 14 17  1  0  0  0
 15 16  1  0  0  0
 15 27  1  0  0  0
 16 20  1  0  0  0
 16 43  1  0  0  0
 17 18  2  0  0  0
 17 19  1  0  0  0
 19 24  1  0  0  0
 19 20  2  0  0  0
 20 21  1  0  0  0
 21 22  2  0  0  0
 21 44  1  0  0  0
 22 23  1  0  0  0
 22 45  1  0  0  0
 23 24  2  0  0  0
 23 25  1  0  0  0
 24 46  1  0  0  0
 25 26  1  0  0  0
 25 47  1  0  0  0
 25 48  1  0  0  0
 26 28  1  0  0  0
 26 32  1  0  0  0
 27 49  1  0  0  0
 27 50  1  0  0  0
 27 51  1  0  0  0
 28 29  1  0  0  0
 28 31  2  0  0  0
 30 31  1  0  0  0
 31 52  1  0  0  0
 32 33  1  0  0  0
 32 53  1  0  0  0
 32 54  1  0  0  0
 33 34  1  0  0  0
 33 55  1  0  0  0
 33 56  1  0  0  0
 34 57  1  0  0  0
M  END
> <s_m_entry_id>
41073

> <s_m_entry_name>
dock_pv.190

> <s_m_Source_Path>
/home/csk/Desktop/cluster/DUD-E-result/tysy

> <s_m_Source_File>
dock_pv.maegz

> <i_m_Source_File_Index>
190

> <chembl_id>
CHEMBL1094275

> <chembl_pref_name>
None

> <i_lp_mmshare_version>
53161

> <r_lp_tautomer_probability>
0.116051

> <s_lp_Force_Field>
OPLS_2005

> <r_lp_Energy>
20.805789

> <b_lp_Chiralities_Consistent>
1

> <s_lp_Variant>
CHEMBL1952_lig257-2

> <s_i_glide_gridfile>
glide-grid_1syn

> <i_i_glide_lignum>
511

> <i_i_glide_rotatable_bonds>
15

> <r_i_docking_score>
-8.07523190756702

> <r_i_glide_ligand_efficiency>
-0.237506820810795

> <r_i_glide_ligand_efficiency_sa>
-0.769429898678118

> <r_i_glide_ligand_efficiency_ln>
-1.78404523096441

> <r_i_glide_gscore>
-8.07523190756702

> <r_i_glide_lipo>
-3.13066422168057

> <r_i_glide_hbond>
-0.392880535191131

> <r_i_glide_metal>
0

> <r_i_glide_rewards>
-0.795198904573954

> <r_i_glide_evdw>
-55.7124328613281

> <r_i_glide_ecoul>
-13.2120122909546

> <r_i_glide_erotb>
1.0188413676133

> <r_i_glide_esite>
-0.00790612702507309

> <r_i_glide_emodel>
-95.3790550146519

> <r_i_glide_energy>
-68.9244451522827

> <r_i_glide_einternal>
14.885027885437

> <i_i_glide_confnum>
28

> <i_i_glide_posenum>
255

> <r_i_glide_eff_state_penalty>
0

> <s_user_duplicate_titles>
CHEMBL1952_lig257,CHEMBL1952_lig257,625069

> <i_f3d_flags>
0

> <s_m_subgroup_title>
dock_pv

> <s_m_subgroupid>
dock_pv

> <b_m_subgroup_collapsed>
1

$$$$
CHEMBL1952_lig398
                    3D
 Schrodinger Suite 2021-1.
 36 38  0  0  1  0            999 V2000
   15.3611   16.5645   31.9260 C   0  0  0  0  0  0
   14.9145   17.6483   32.9012 C   0  0  0  0  0  0
   13.8568   18.3650   32.4603 N   0  0  0  0  0  0
   16.4522   15.6876   32.1507 C   0  0  0  0  0  0
   13.5540   17.3220   30.4327 N   0  0  0  0  0  0
   14.6260   16.4711   30.7321 C   0  0  0  0  0  0
   13.2162   18.2278   31.2664 C   0  0  0  0  0  0
   14.0177   13.4401   36.7907 C   0  0  0  0  0  0
   15.3618   13.4641   36.0630 C   0  0  0  0  0  0
   17.5069   15.8267   33.5910 S   0  0  0  0  0  0
   15.7487   14.5537   35.2703 C   0  0  0  0  0  0
   16.7538   14.7201   31.1656 C   0  0  0  0  0  0
   15.3923   17.9292   33.9919 O   0  0  0  0  0  0
   16.1518   12.3647   36.2231 N   0  0  0  0  0  0
   16.9801   14.4949   34.6146 C   0  0  0  0  0  0
   14.9421   15.5210   29.7729 C   0  0  0  0  0  0
   15.9941   14.6436   29.9919 C   0  0  0  0  0  0
   13.5051   12.2067   36.8301 F   0  0  0  0  0  0
   13.1251   14.2279   36.1904 F   0  0  0  0  0  0
   14.1829   13.8693   38.0425 F   0  0  0  0  0  0
   17.3521   12.3380   35.5903 C   0  0  0  0  0  0
   17.8058   13.3822   34.7860 C   0  0  0  0  0  0
   12.0585   19.1392   30.9663 C   0  0  0  0  0  0
   17.9109   13.7419   31.3185 C   0  0  0  0  0  0
   15.1125   15.4195   35.1583 H   0  0  0  0  0  0
   13.5550   19.0852   33.1001 H   0  0  0  0  0  0
   14.3711   15.4622   28.8603 H   0  0  0  0  0  0
   16.2002   13.8945   29.2430 H   0  0  0  0  0  0
   17.9582   11.4551   35.7361 H   0  0  0  0  0  0
   18.7685   13.3197   34.2969 H   0  0  0  0  0  0
   12.0336   19.4143   29.9109 H   0  0  0  0  0  0
   11.1241   18.6281   31.1909 H   0  0  0  0  0  0
   12.0976   20.0626   31.5466 H   0  0  0  0  0  0
   18.1270   13.2200   30.3911 H   0  0  0  0  0  0
   18.8278   14.2544   31.6095 H   0  0  0  0  0  0
   17.6868   12.9936   32.0757 H   0  0  0  0  0  0
  1  2  1  0  0  0
  1  4  1  0  0  0
  1  6  2  0  0  0
  2 13  2  0  0  0
  2  3  1  0  0  0
  3  7  1  0  0  0
  3 26  1  0  0  0
  4 10  1  0  0  0
  4 12  2  0  0  0
  5  6  1  0  0  0
  5  7  2  0  0  0
  6 16  1  0  0  0
  7 23  1  0  0  0
  8  9  1  0  0  0
  8 18  1  0  0  0
  8 19  1  0  0  0
  8 20  1  0  0  0
  9 11  1  0  0  0
  9 14  2  0  0  0
 10 15  1  0  0  0
 11 15  2  0  0  0
 11 25  1  0  0  0
 12 24  1  0  0  0
 12 17  1  0  0  0
 14 21  1  0  0  0
 15 22  1  0  0  0
 16 17  2  0  0  0
 16 27  1  0  0  0
 17 28  1  0  0  0
 21 22  2  0  0  0
 21 29  1  0  0  0
 22 30  1  0  0  0
 23 31  1  0  0  0
 23 32  1  0  0  0
 23 33  1  0  0  0
 24 34  1  0  0  0
 24 35  1  0  0  0
 24 36  1  0  0  0
M  END
> <s_m_entry_id>
41074

> <s_m_entry_name>
dock_pv.191

> <s_m_Source_Path>
/home/csk/Desktop/cluster/DUD-E-result/tysy

> <s_m_Source_File>
dock_pv.maegz

> <i_m_Source_File_Index>
191

> <chembl_id>
CHEMBL163410

> <chembl_pref_name>
None

> <i_lp_mmshare_version>
53161

> <r_lp_tautomer_probability>
0.883938

> <s_lp_Force_Field>
OPLS_2005

> <r_lp_Energy>
24.05445

> <b_lp_Chiralities_Consistent>
1

> <s_lp_Variant>
CHEMBL1952_lig398-1

> <s_i_glide_gridfile>
glide-grid_1syn

> <i_i_glide_lignum>
783

> <i_i_glide_rotatable_bonds>
3

> <r_i_docking_score>
-8.07448654119819

> <r_i_glide_ligand_efficiency>
-0.336436939216591

> <r_i_glide_ligand_efficiency_sa>
-0.970452061013287

> <r_i_glide_ligand_efficiency_ln>
-1.93259514335308

> <r_i_glide_gscore>
-8.07448654119819

> <r_i_glide_lipo>
-3.68926552306162

> <r_i_glide_hbond>
0

> <r_i_glide_metal>
0

> <r_i_glide_rewards>
-1.7955255439881

> <r_i_glide_evdw>
-45.256664276123

> <r_i_glide_ecoul>
-4.23903608322144

> <r_i_glide_erotb>
0.308993152140904

> <r_i_glide_esite>
0

> <r_i_glide_emodel>
-73.5470294674576

> <r_i_glide_energy>
-49.4957003593445

> <r_i_glide_einternal>
1.80424785614014

> <i_i_glide_confnum>
1

> <i_i_glide_posenum>
320

> <r_i_glide_eff_state_penalty>
0

> <s_user_duplicate_titles>
CHEMBL1952_lig398,CHEMBL1952_lig398,273090

> <i_f3d_flags>
0

> <s_m_subgroup_title>
dock_pv

> <s_m_subgroupid>
dock_pv

> <b_m_subgroup_collapsed>
1

$$$$
CHEMBL1952_lig29
                    3D
 Schrodinger Suite 2021-1.
 25 27  0  0  1  0            999 V2000
   14.3733   18.1146   32.9575 C   0  0  0  0  0  0
   14.7450   17.1938   31.9050 C   0  0  0  0  0  0
   13.4027   19.0282   32.7910 N   0  0  0  0  0  0
   12.7644   19.0710   31.6215 C   0  0  0  0  0  0
   12.9825   18.2679   30.5646 N   0  0  0  0  0  0
   13.9730   17.3421   30.7017 C   0  0  0  0  0  0
   15.7768   16.1940   31.9440 C   0  0  0  0  0  0
   14.9921   18.1033   34.1672 O   0  0  0  0  0  0
   15.9891   15.3659   30.7915 C   0  0  0  0  0  0
   16.6388   15.9646   33.0646 C   0  0  0  0  0  0
   14.2229   16.5212   29.5896 C   0  0  0  0  0  0
   11.7921   20.0469   31.5329 N   0  0  0  0  0  0
   15.2026   15.5458   29.6363 C   0  0  0  0  0  0
   16.9918   14.3653   30.8072 C   0  0  0  0  0  0
   17.6341   14.9932   33.0329 C   0  0  0  0  0  0
   17.8033   14.1905   31.9175 C   0  0  0  0  0  0
   18.6755   14.7932   34.3909 Cl  0  0  0  0  0  0
   14.5700   18.7789   34.7056 H   0  0  0  0  0  0
   16.5816   16.5354   33.9700 H   0  0  0  0  0  0
   13.6427   16.6603   28.6891 H   0  0  0  0  0  0
   11.0994   19.9833   30.7908 H   0  0  0  0  0  0
   11.6463   20.6182   32.3505 H   0  0  0  0  0  0
   15.3752   14.9177   28.7725 H   0  0  0  0  0  0
   17.1270   13.7274   29.9492 H   0  0  0  0  0  0
   18.5742   13.4305   31.9062 H   0  0  0  0  0  0
  1  2  1  0  0  0
  1  3  2  0  0  0
  1  8  1  0  0  0
  2  6  2  0  0  0
  2  7  1  0  0  0
  3  4  1  0  0  0
  4  5  2  0  0  0
  4 12  1  0  0  0
  5  6  1  0  0  0
  6 11  1  0  0  0
  7  9  2  0  0  0
  7 10  1  0  0  0
  8 18  1  0  0  0
  9 13  1  0  0  0
  9 14  1  0  0  0
 10 15  2  0  0  0
 10 19  1  0  0  0
 11 13  2  0  0  0
 11 20  1  0  0  0
 12 21  1  0  0  0
 12 22  1  0  0  0
 13 23  1  0  0  0
 14 16  2  0  0  0
 14 24  1  0  0  0
 15 16  1  0  0  0
 15 17  1  0  0  0
 16 25  1  0  0  0
M  END
> <s_m_entry_id>
41075

> <s_m_entry_name>
dock_pv.192

> <s_m_Source_Path>
/home/csk/Desktop/cluster/DUD-E-result/tysy

> <s_m_Source_File>
dock_pv.maegz

> <i_m_Source_File_Index>
192

> <chembl_id>
CHEMBL306775

> <chembl_pref_name>
None

> <i_lp_mmshare_version>
53161

> <r_lp_tautomer_probability>
1

> <s_lp_Force_Field>
OPLS_2005

> <r_lp_Energy>
13.196362

> <b_lp_Chiralities_Consistent>
1

> <s_lp_Variant>
CHEMBL1952_lig29-1

> <s_i_glide_gridfile>
glide-grid_1syn

> <i_i_glide_lignum>
36

> <i_i_glide_rotatable_bonds>
1

> <r_i_docking_score>
-8.07267097390893

> <r_i_glide_ligand_efficiency>
-0.474862998465231

> <r_i_glide_ligand_efficiency_sa>
-1.2210064848853

> <r_i_glide_ligand_efficiency_ln>
-2.10598008754885

> <r_i_glide_gscore>
-8.07267097390893

> <r_i_glide_lipo>
-3.11771827029362

> <r_i_glide_hbond>
-0.32

> <r_i_glide_metal>
0

> <r_i_glide_rewards>
-2.27431378712285

> <r_i_glide_evdw>
-36.162109375

> <r_i_glide_ecoul>
-3.68355631828308

> <r_i_glide_erotb>
0

> <r_i_glide_esite>
0

> <r_i_glide_emodel>
-59.3524262572526

> <r_i_glide_energy>
-39.8456656932831

> <r_i_glide_einternal>
0.909021019935608

> <i_i_glide_confnum>
1

> <i_i_glide_posenum>
283

> <r_i_glide_eff_state_penalty>
0

> <s_user_duplicate_titles>
CHEMBL1952_lig29

> <i_f3d_flags>
0

> <s_m_subgroup_title>
dock_pv

> <s_m_subgroupid>
dock_pv

> <b_m_subgroup_collapsed>
1

$$$$
CHEMBL1952_lig79
                    3D
 Schrodinger Suite 2021-1.
 27 29  0  0  1  0            999 V2000
   16.1381   16.3923   33.0813 C   0  0  0  0  0  0
   15.4984   16.3902   31.7835 C   0  0  0  0  0  0
   17.1267   15.5246   33.4027 N   0  0  0  0  0  0
   17.5399   14.6678   32.4539 C   0  0  0  0  0  0
   17.0513   14.5731   31.2053 N   0  0  0  0  0  0
   16.0474   15.4275   30.8707 C   0  0  0  0  0  0
   14.4402   17.2557   31.3229 C   0  0  0  0  0  0
   15.7808   17.3408   33.9903 O   0  0  0  0  0  0
   14.0378   17.1776   29.9474 C   0  0  0  0  0  0
   13.7400   18.2151   32.1376 C   0  0  0  0  0  0
   15.5776   15.3445   29.5515 C   0  0  0  0  0  0
   18.5901   13.8285   32.7911 N   0  0  0  0  0  0
   14.6056   16.2142   29.0960 C   0  0  0  0  0  0
   13.0691   18.0687   29.4295 C   0  0  0  0  0  0
   12.7944   19.0803   31.5927 C   0  0  0  0  0  0
   12.1569   20.0279   32.3910 N   0  0  0  0  0  0
   12.4777   19.0168   30.2460 C   0  0  0  0  0  0
   15.2222   18.0065   33.5917 H   0  0  0  0  0  0
   13.8716   18.3024   33.1981 H   0  0  0  0  0  0
   16.0053   14.6123   28.8799 H   0  0  0  0  0  0
   19.0174   13.2335   32.0856 H   0  0  0  0  0  0
   19.0269   13.9488   33.6897 H   0  0  0  0  0  0
   14.2864   16.1630   28.0647 H   0  0  0  0  0  0
   12.7918   18.0163   28.3862 H   0  0  0  0  0  0
   11.5206   20.6700   31.9404 H   0  0  0  0  0  0
   12.4735   20.2106   33.3450 H   0  0  0  0  0  0
   11.7542   19.6970   29.8217 H   0  0  0  0  0  0
  1  2  1  0  0  0
  1  3  2  0  0  0
  1  8  1  0  0  0
  2  6  2  0  0  0
  2  7  1  0  0  0
  3  4  1  0  0  0
  4  5  2  0  0  0
  4 12  1  0  0  0
  5  6  1  0  0  0
  6 11  1  0  0  0
  7  9  2  0  0  0
  7 10  1  0  0  0
  8 18  1  0  0  0
  9 13  1  0  0  0
  9 14  1  0  0  0
 10 15  2  0  0  0
 10 19  1  0  0  0
 11 13  2  0  0  0
 11 20  1  0  0  0
 12 21  1  0  0  0
 12 22  1  0  0  0
 13 23  1  0  0  0
 14 17  2  0  0  0
 14 24  1  0  0  0
 15 16  1  0  0  0
 15 17  1  0  0  0
 16 25  1  0  0  0
 16 26  1  0  0  0
 17 27  1  0  0  0
M  END
> <s_m_entry_id>
41076

> <s_m_entry_name>
dock_pv.193

> <s_m_Source_Path>
/home/csk/Desktop/cluster/DUD-E-result/tysy

> <s_m_Source_File>
dock_pv.maegz

> <i_m_Source_File_Index>
193

> <chembl_id>
CHEMBL73200

> <chembl_pref_name>
None

> <i_lp_mmshare_version>
53161

> <r_lp_tautomer_probability>
1

> <s_lp_Force_Field>
OPLS_2005

> <r_lp_Energy>
16.951184

> <b_lp_Chiralities_Consistent>
1

> <s_lp_Variant>
CHEMBL1952_lig79-1

> <s_i_glide_gridfile>
glide-grid_1syn

> <i_i_glide_lignum>
123

> <i_i_glide_rotatable_bonds>
1

> <r_i_docking_score>
-8.07187480034182

> <r_i_glide_ligand_efficiency>
-0.474816164725989

> <r_i_glide_ligand_efficiency_sa>
-1.22088606215387

> <r_i_glide_ligand_efficiency_ln>
-2.1057723835951

> <r_i_glide_gscore>
-8.07187480034182

> <r_i_glide_lipo>
-2.91092903258706

> <r_i_glide_hbond>
-0.275497325085458

> <r_i_glide_metal>
0

> <r_i_glide_rewards>
-2.25550799229821

> <r_i_glide_evdw>
-34.1809387207031

> <r_i_glide_ecoul>
-5.68478727340698

> <r_i_glide_erotb>
0

> <r_i_glide_esite>
-0.0681754233248813

> <r_i_glide_emodel>
-60.9433887018566

> <r_i_glide_energy>
-39.8657259941101

> <r_i_glide_einternal>
0.00683462293818593

> <i_i_glide_confnum>
1

> <i_i_glide_posenum>
79

> <r_i_glide_eff_state_penalty>
0

> <s_user_duplicate_titles>
CHEMBL1952_lig79

> <i_f3d_flags>
0

> <s_m_subgroup_title>
dock_pv

> <s_m_subgroupid>
dock_pv

> <b_m_subgroup_collapsed>
1

$$$$
CHEMBL1952_lig63
                    3D
 Schrodinger Suite 2021-1.
 29 31  0  0  1  0            999 V2000
   14.0991   17.8612   32.3160 C   0  0  0  0  0  0
   13.1903   18.5413   31.5821 N   0  0  0  0  0  0
   14.8870   16.7672   31.7593 C   0  0  0  0  0  0
   13.0947   18.2461   30.2777 C   0  0  0  0  0  0
   13.8204   17.3364   29.6121 N   0  0  0  0  0  0
   14.7159   16.6197   30.3380 C   0  0  0  0  0  0
   15.8237   15.8837   32.4297 C   0  0  0  0  0  0
   15.9463   15.6712   33.8600 C   0  0  0  0  0  0
   16.6970   15.0816   31.6120 C   0  0  0  0  0  0
   16.9881   14.9013   34.3835 C   0  0  0  0  0  0
   14.3337   18.3268   33.5775 O   0  0  0  0  0  0
   17.7360   14.3122   32.1882 C   0  0  0  0  0  0
   17.8911   14.2511   33.5595 C   0  0  0  0  0  0
   15.5162   15.7381   29.5997 C   0  0  0  0  0  0
   16.5202   15.0255   30.2191 C   0  0  0  0  0  0
   12.1920   18.9804   29.5313 N   0  0  0  0  0  0
   15.0244   16.1044   34.8084 N   0  0  0  0  0  0
   18.9261   13.4929   34.1013 N   0  0  0  0  0  0
   17.0822   14.7784   35.4532 H   0  0  0  0  0  0
   13.7936   19.1088   33.7475 H   0  0  0  0  0  0
   18.4036   13.7503   31.5474 H   0  0  0  0  0  0
   15.3760   15.6540   28.5307 H   0  0  0  0  0  0
   17.1562   14.3843   29.6277 H   0  0  0  0  0  0
   12.0507   18.7238   28.5676 H   0  0  0  0  0  0
   11.4834   19.5092   30.0238 H   0  0  0  0  0  0
   14.4619   16.9001   34.5198 H   0  0  0  0  0  0
   15.2734   16.0020   35.7818 H   0  0  0  0  0  0
   19.5637   13.0020   33.4792 H   0  0  0  0  0  0
   18.9640   13.3385   35.0955 H   0  0  0  0  0  0
  1  2  2  0  0  0
  1  3  1  0  0  0
  1 11  1  0  0  0
  2  4  1  0  0  0
  3  6  2  0  0  0
  3  7  1  0  0  0
  4 16  1  0  0  0
  4  5  2  0  0  0
  5  6  1  0  0  0
  6 14  1  0  0  0
  7  8  2  0  0  0
  7  9  1  0  0  0
  8 10  1  0  0  0
  8 17  1  0  0  0
  9 12  2  0  0  0
  9 15  1  0  0  0
 10 13  2  0  0  0
 10 19  1  0  0  0
 11 20  1  0  0  0
 12 13  1  0  0  0
 12 21  1  0  0  0
 13 18  1  0  0  0
 14 15  2  0  0  0
 14 22  1  0  0  0
 15 23  1  0  0  0
 16 24  1  0  0  0
 16 25  1  0  0  0
 17 26  1  0  0  0
 17 27  1  0  0  0
 18 28  1  0  0  0
 18 29  1  0  0  0
M  END
> <s_m_entry_id>
41077

> <s_m_entry_name>
dock_pv.194

> <s_m_Source_Path>
/home/csk/Desktop/cluster/DUD-E-result/tysy

> <s_m_Source_File>
dock_pv.maegz

> <i_m_Source_File_Index>
194

> <chembl_id>
CHEMBL73228

> <chembl_pref_name>
None

> <i_lp_mmshare_version>
53161

> <r_lp_tautomer_probability>
1

> <s_lp_Force_Field>
OPLS_2005

> <r_lp_Energy>
27.658462

> <b_lp_Chiralities_Consistent>
1

> <s_lp_Variant>
CHEMBL1952_lig63-1

> <s_i_glide_gridfile>
glide-grid_1syn

> <i_i_glide_lignum>
95

> <i_i_glide_rotatable_bonds>
1

> <r_i_docking_score>
-8.0716235086727

> <r_i_glide_ligand_efficiency>
-0.448423528259595

> <r_i_glide_ligand_efficiency_sa>
-1.17520210151487

> <r_i_glide_ligand_efficiency_ln>
-2.07476920227225

> <r_i_glide_gscore>
-8.0716235086727

> <r_i_glide_lipo>
-2.68561848269126

> <r_i_glide_hbond>
-0.285424103657674

> <r_i_glide_metal>
0

> <r_i_glide_rewards>
-2.23078761283278

> <r_i_glide_evdw>
-37.2433853149414

> <r_i_glide_ecoul>
-5.94953870773315

> <r_i_glide_erotb>
0

> <r_i_glide_esite>
-0.115193237583938

> <r_i_glide_emodel>
-63.7842713787572

> <r_i_glide_energy>
-43.1929240226746

> <r_i_glide_einternal>
1.07855415344238

> <i_i_glide_confnum>
1

> <i_i_glide_posenum>
214

> <r_i_glide_eff_state_penalty>
0

> <s_user_duplicate_titles>
CHEMBL1952_lig63

> <i_f3d_flags>
0

> <s_m_subgroup_title>
dock_pv

> <s_m_subgroupid>
dock_pv

> <b_m_subgroup_collapsed>
1

$$$$
CHEMBL1952_lig464
                    3D
 Schrodinger Suite 2021-1.
 33 36  0  0  1  0            999 V2000
   18.4918   15.4324   34.8103 O   0  0  0  0  0  0
   18.2833   14.0576   34.3596 S   0  0  0  0  0  0
   19.3876   13.1022   34.3874 O   0  0  0  0  0  0
   15.3641   15.9850   30.3741 C   0  0  0  0  0  0
   13.7539   17.8277   30.8409 C   0  0  0  0  0  0
   14.0752   17.0276   28.5873 C   0  0  0  0  0  0
   13.4403   18.6282   33.1167 O   0  0  0  0  0  0
   16.0492   15.9690   33.0922 C   0  0  0  0  0  0
   16.3291   15.0639   30.8760 C   0  0  0  0  0  0
   12.2480   19.6027   31.5373 O   0  0  0  0  0  0
   15.0702   16.8642   32.6573 C   0  0  0  0  0  0
   14.5916   17.8279   34.8102 O   0  0  0  0  0  0
   14.3804   17.7866   33.6078 C   0  0  0  0  0  0
   16.6756   15.0598   32.2336 C   0  0  0  0  0  0
   13.4536   17.8860   29.4818 C   0  0  0  0  0  0
   13.0850   18.7471   31.8169 C   0  0  0  0  0  0
   14.7328   16.8789   31.2800 C   0  0  0  0  0  0
   14.9956   16.0657   29.0128 C   0  0  0  0  0  0
   17.6305   14.1248   32.6933 N   0  0  0  0  0  0
   16.9469   13.3220   35.3503 C   0  0  0  0  0  0
   16.7935   11.9529   35.5898 C   0  0  0  0  0  0
   15.3727   11.6043   36.5240 S   0  0  0  0  0  0
   15.0195   13.2916   36.6649 C   0  0  0  0  0  0
   15.9532   14.0717   35.9992 C   0  0  0  0  0  0
   17.7902   10.6394   35.0933 Cl  0  0  0  0  0  0
   13.6630   13.8279   37.5738 Cl  0  0  0  0  0  0
   13.7951   17.0861   27.5458 H   0  0  0  0  0  0
   16.3113   15.9938   34.1323 H   0  0  0  0  0  0
   16.8005   14.3750   30.1920 H   0  0  0  0  0  0
   12.7299   18.5964   29.1043 H   0  0  0  0  0  0
   15.4463   15.3916   28.2971 H   0  0  0  0  0  0
   17.9564   13.4080   32.0597 H   0  0  0  0  0  0
   15.9050   15.1495   36.0096 H   0  0  0  0  0  0
  1  2  2  0  0  0
  2  3  2  0  0  0
  2 19  1  0  0  0
  2 20  1  0  0  0
  4  9  1  0  0  0
  4 18  2  0  0  0
  4 17  1  0  0  0
  5 17  2  0  0  0
  5 15  1  0  0  0
  5 16  1  0  0  0
  6 15  2  0  0  0
  6 18  1  0  0  0
  6 27  1  0  0  0
  7 16  1  0  0  0
  7 13  1  0  0  0
  8 11  2  0  0  0
  8 14  1  0  0  0
  8 28  1  0  0  0
  9 14  2  0  0  0
  9 29  1  0  0  0
 10 16  2  0  0  0
 11 13  1  0  0  0
 11 17  1  0  0  0
 12 13  2  0  0  0
 14 19  1  0  0  0
 15 30  1  0  0  0
 18 31  1  0  0  0
 19 32  1  0  0  0
 20 21  2  0  0  0
 20 24  1  0  0  0
 21 22  1  0  0  0
 21 25  1  0  0  0
 22 23  1  0  0  0
 23 24  2  0  0  0
 23 26  1  0  0  0
 24 33  1  0  0  0
M  END
> <s_m_entry_id>
41079

> <s_m_entry_name>
dock_pv.196

> <s_m_Source_Path>
/home/csk/Desktop/cluster/DUD-E-result/tysy

> <s_m_Source_File>
dock_pv.maegz

> <i_m_Source_File_Index>
196

> <chembl_id>
CHEMBL2323394

> <chembl_pref_name>
None

> <i_lp_mmshare_version>
53161

> <r_lp_tautomer_probability>
1

> <s_lp_Force_Field>
OPLS_2005

> <r_lp_Energy>
30.079523

> <b_lp_Chiralities_Consistent>
1

> <s_lp_Variant>
CHEMBL1952_lig464-1

> <s_i_glide_gridfile>
glide-grid_1syn

> <i_i_glide_lignum>
894

> <i_i_glide_rotatable_bonds>
3

> <r_i_docking_score>
-8.04754109537304

> <r_i_glide_ligand_efficiency>
-0.309520811360502

> <r_i_glide_ligand_efficiency_sa>
-0.916954185749904

> <r_i_glide_ligand_efficiency_ln>
-1.88993862011224

> <r_i_glide_gscore>
-8.04754109537304

> <r_i_glide_lipo>
-3.98724613260332

> <r_i_glide_hbond>
0

> <r_i_glide_metal>
0

> <r_i_glide_rewards>
-1.56469604440449

> <r_i_glide_evdw>
-52.181209564209

> <r_i_glide_ecoul>
-0.820728123188019

> <r_i_glide_erotb>
0.324876000630146

> <r_i_glide_esite>
-0.0883052223067241

> <r_i_glide_emodel>
-78.0510490363448

> <r_i_glide_energy>
-53.001937687397

> <r_i_glide_einternal>
0.840518832206726

> <i_i_glide_confnum>
10

> <i_i_glide_posenum>
38

> <r_i_glide_eff_state_penalty>
0

> <s_user_duplicate_titles>
CHEMBL1952_lig464

> <i_f3d_flags>
0

> <s_m_subgroup_title>
dock_pv

> <s_m_subgroupid>
dock_pv

> <b_m_subgroup_collapsed>
1

$$$$
CHEMBL1952_lig127
                    3D
 Schrodinger Suite 2021-1.
 31 33  0  0  1  0            999 V2000
   14.8976   16.8147   31.8015 C   0  0  0  0  0  0
   14.4856   16.3390   30.5285 C   0  0  0  0  0  0
   13.4765   16.8125   29.7987 N   0  0  0  0  0  0
   16.0472   16.0296   32.1814 C   0  0  0  0  0  0
   14.1321   17.8824   32.3261 C   0  0  0  0  0  0
   13.0949   18.3831   31.6077 N   0  0  0  0  0  0
   12.8349   17.8392   30.3983 C   0  0  0  0  0  0
   15.3242   15.3124   30.1779 N   0  0  0  0  0  0
   16.2639   15.1154   31.1606 C   0  0  0  0  0  0
   17.0694   16.2279   33.5909 S   0  0  0  0  0  0
   14.8817   13.8495   36.0124 C   0  0  0  0  0  0
   15.2873   14.9164   35.2067 C   0  0  0  0  0  0
   14.4792   18.3752   33.5541 O   0  0  0  0  0  0
   16.5385   14.8809   34.5878 C   0  0  0  0  0  0
   15.7318   12.7530   36.2013 C   0  0  0  0  0  0
   11.7920   18.3864   29.6816 N   0  0  0  0  0  0
   16.9869   12.7291   35.5909 C   0  0  0  0  0  0
   13.3252   13.8930   36.7612 Cl  0  0  0  0  0  0
   17.3928   13.7939   34.7864 C   0  0  0  0  0  0
   15.3479   11.7090   36.9725 F   0  0  0  0  0  0
   17.3092   14.0387   31.0159 C   0  0  0  0  0  0
   15.2926   14.7599   29.3349 H   0  0  0  0  0  0
   14.6343   15.7661   35.0622 H   0  0  0  0  0  0
   13.8990   19.1041   33.8009 H   0  0  0  0  0  0
   11.1702   19.0605   30.1151 H   0  0  0  0  0  0
   11.5709   17.9948   28.7832 H   0  0  0  0  0  0
   17.6441   11.8844   35.7377 H   0  0  0  0  0  0
   18.3634   13.7699   34.3109 H   0  0  0  0  0  0
   18.2985   14.3933   31.3108 H   0  0  0  0  0  0
   17.0819   13.1723   31.6380 H   0  0  0  0  0  0
   17.3914   13.6831   29.9917 H   0  0  0  0  0  0
  1  2  1  0  0  0
  1  4  1  0  0  0
  1  5  2  0  0  0
  2  3  2  0  0  0
  2  8  1  0  0  0
  3  7  1  0  0  0
  4  9  2  0  0  0
  4 10  1  0  0  0
  5  6  1  0  0  0
  5 13  1  0  0  0
  6  7  2  0  0  0
  7 16  1  0  0  0
  8  9  1  0  0  0
  8 22  1  0  0  0
  9 21  1  0  0  0
 10 14  1  0  0  0
 11 12  1  0  0  0
 11 18  1  0  0  0
 11 15  2  0  0  0
 12 14  2  0  0  0
 12 23  1  0  0  0
 13 24  1  0  0  0
 14 19  1  0  0  0
 15 17  1  0  0  0
 15 20  1  0  0  0
 16 25  1  0  0  0
 16 26  1  0  0  0
 17 19  2  0  0  0
 17 27  1  0  0  0
 19 28  1  0  0  0
 21 29  1  0  0  0
 21 30  1  0  0  0
 21 31  1  0  0  0
M  END
> <s_m_entry_id>
41080

> <s_m_entry_name>
dock_pv.197

> <s_m_Source_Path>
/home/csk/Desktop/cluster/DUD-E-result/tysy

> <s_m_Source_File>
dock_pv.maegz

> <i_m_Source_File_Index>
197

> <chembl_id>
CHEMBL370106

> <chembl_pref_name>
None

> <i_lp_mmshare_version>
53161

> <r_lp_tautomer_probability>
1

> <s_lp_Force_Field>
OPLS_2005

> <r_lp_Energy>
1.186032

> <b_lp_Chiralities_Consistent>
1

> <s_lp_Variant>
CHEMBL1952_lig127-1

> <s_i_glide_gridfile>
glide-grid_1syn

> <i_i_glide_lignum>
304

> <i_i_glide_rotatable_bonds>
3

> <r_i_docking_score>
-8.04697704380167

> <r_i_glide_ligand_efficiency>
-0.383189383038175

> <r_i_glide_ligand_efficiency_sa>
-1.05719045192371

> <r_i_glide_ligand_efficiency_ln>
-1.98959881363179

> <r_i_glide_gscore>
-8.04697704380167

> <r_i_glide_lipo>
-3.16154592760797

> <r_i_glide_hbond>
-0.311367849275152

> <r_i_glide_metal>
0

> <r_i_glide_rewards>
-2.04459780637971

> <r_i_glide_evdw>
-39.2477760314941

> <r_i_glide_ecoul>
-5.74322319030762

> <r_i_glide_erotb>
0.355210406414637

> <r_i_glide_esite>
-0.0608035868326141

> <r_i_glide_emodel>
-66.9665107095505

> <r_i_glide_energy>
-44.9909992218018

> <r_i_glide_einternal>
2.87663698196411

> <i_i_glide_confnum>
6

> <i_i_glide_posenum>
4

> <r_i_glide_eff_state_penalty>
0

> <s_user_duplicate_titles>
CHEMBL1952_lig127,325741

> <i_f3d_flags>
0

> <s_m_subgroup_title>
dock_pv

> <s_m_subgroupid>
dock_pv

> <b_m_subgroup_collapsed>
1

$$$$
CHEMBL1952_lig458
                    3D
 Schrodinger Suite 2021-1.
 33 34  0  0  1  0            999 V2000
   16.8285   15.3031   31.4076 N   0  0  0  0  0  0
   18.1354   14.8609   31.3533 C   0  0  0  0  0  0
   18.5950   14.3048   32.5244 N   0  0  0  0  0  0
   16.1181   15.6398   30.1606 C   0  0  2  0  0  0
   16.2167   15.4227   32.6279 C   0  0  0  0  0  0
   16.7468   15.0061   33.7952 C   0  0  0  0  0  0
   18.0426   14.3464   33.7758 C   0  0  0  0  0  0
   13.7512   17.7715   33.6917 P   0  0  0  0  0  0
   15.3924   16.8366   30.2681 O   0  0  0  0  0  0
   15.1301   14.6151   29.6073 C   0  0  0  0  0  0
   13.9938   16.6626   30.0654 C   0  0  1  0  0  0
   13.8303   15.1444   30.1885 C   0  0  1  0  0  0
   13.2290   17.5165   31.0945 C   0  0  0  0  0  0
   18.8824   15.0272   30.3959 O   0  0  0  0  0  0
   13.3036   16.9240   32.3794 O   0  0  0  0  0  0
   12.4236   18.6293   33.9913 O   0  0  0  0  0  0
   13.7507   16.6469   34.8540 O   0  0  0  0  0  0
   15.0188   18.5405   33.5936 O   0  0  0  0  0  0
   18.5891   13.8896   34.7785 O   0  0  0  0  0  0
   16.0942   15.1458   34.9703 F   0  0  0  0  0  0
   12.6613   14.6273   29.6002 O   0  0  0  0  0  0
   19.5120   13.8825   32.4680 H   0  0  0  0  0  0
   16.8813   15.8243   29.4021 H   0  0  0  0  0  0
   15.2590   15.8783   32.5623 H   0  0  0  0  0  0
   15.3994   13.5986   29.8940 H   0  0  0  0  0  0
   15.1300   14.6815   28.5179 H   0  0  0  0  0  0
   13.7634   17.0178   29.0590 H   0  0  0  0  0  0
   13.7926   14.8816   31.2368 H   0  0  0  0  0  0
   12.1767   17.5703   30.8135 H   0  0  0  0  0  0
   13.6105   18.5411   31.0900 H   0  0  0  0  0  0
   12.5919   19.5379   34.3676 H   0  0  0  0  0  0
   14.6286   16.4930   35.2538 H   0  0  0  0  0  0
   12.6756   13.6586   29.6433 H   0  0  0  0  0  0
  1  2  1  0  0  0
  1  4  1  0  0  0
  1  5  1  0  0  0
  2  3  1  0  0  0
  2 14  2  0  0  0
  3  7  1  0  0  0
  3 22  1  0  0  0
  4  9  1  0  0  0
  4 10  1  0  0  0
  4 23  1  0  0  0
  5  6  2  0  0  0
  5 24  1  0  0  0
  6  7  1  0  0  0
  6 20  1  0  0  0
  7 19  2  0  0  0
  8 15  1  0  0  0
  8 16  1  0  0  0
  8 17  1  0  0  0
  8 18  2  0  0  0
  9 11  1  0  0  0
 10 12  1  0  0  0
 10 25  1  0  0  0
 10 26  1  0  0  0
 11 13  1  0  0  0
 11 12  1  0  0  0
 11 27  1  0  0  0
 12 21  1  0  0  0
 12 28  1  0  0  0
 13 15  1  0  0  0
 13 29  1  0  0  0
 13 30  1  0  0  0
 16 31  1  0  0  0
 17 32  1  0  0  0
 21 33  1  0  0  0
M  END
> <s_m_entry_id>
41081

> <s_m_entry_name>
dock_pv.198

> <s_m_Source_Path>
/home/csk/Desktop/cluster/DUD-E-result/tysy

> <s_m_Source_File>
dock_pv.maegz

> <i_m_Source_File_Index>
198

> <chembl_id>
CHEMBL886

> <chembl_pref_name>
5-FLUORODEOXYURIDYLATE

> <i_lp_mmshare_version>
53161

> <r_lp_tautomer_probability>
0.999537046341301

> <s_lp_Force_Field>
OPLS_2005

> <r_lp_Energy>
12.824167

> <b_lp_Chiralities_Consistent>
1

> <s_lp_Variant>
CHEMBL1952_lig458-1

> <s_i_glide_gridfile>
glide-grid_1syn

> <i_i_glide_lignum>
888

> <i_i_glide_rotatable_bonds>
7

> <r_i_docking_score>
-8.04637266029212

> <r_i_glide_ligand_efficiency>
-0.383160602871053

> <r_i_glide_ligand_efficiency_sa>
-1.05711104962491

> <r_i_glide_ligand_efficiency_ln>
-1.98944938103032

> <r_i_glide_gscore>
-8.04637266029212

> <r_i_glide_lipo>
-1.53994710201125

> <r_i_glide_hbond>
-0.576

> <r_i_glide_metal>
0

> <r_i_glide_rewards>
-2.5359558027646

> <r_i_glide_evdw>
-24.9080924987793

> <r_i_glide_ecoul>
-18.8147659301758

> <r_i_glide_erotb>
0.705007407578532

> <r_i_glide_esite>
-0.0318576486294649

> <r_i_glide_emodel>
-67.4757636610666

> <r_i_glide_energy>
-43.7228584289551

> <r_i_glide_einternal>
3.18505549430847

> <i_i_glide_confnum>
157

> <i_i_glide_posenum>
328

> <r_i_glide_eff_state_penalty>
0

> <s_user_duplicate_titles>
CHEMBL1952_lig458,75577

> <i_f3d_flags>
0

> <s_m_subgroup_title>
dock_pv

> <s_m_subgroupid>
dock_pv

> <b_m_subgroup_collapsed>
1

$$$$
CHEMBL1952_lig355
                    3D
 Schrodinger Suite 2021-1.
 52 55  0  0  1  0            999 V2000
   15.6530   15.8286   30.5168 C   0  0  0  0  0  0
   15.3868   16.1274   31.9894 C   0  0  0  0  0  0
   14.9359   16.6139   29.6017 N   0  0  0  0  0  0
   13.8582   17.8391   31.2968 N   0  0  0  0  0  0
   14.9918    7.7947   35.9905 S   0  0  2  0  0  0
   14.4852   17.1397   32.3322 C   0  0  0  0  0  0
   14.1199   17.5202   29.9807 C   0  0  0  0  0  0
   14.2575    7.6420   37.6719 C   0  0  0  0  0  0
   15.2222   13.7923   36.1078 N   0  0  0  0  0  0
   13.7896   13.8430   38.1960 C   0  0  0  0  0  0
   15.1101    9.5991   35.9388 C   0  0  0  0  0  0
   13.3924   13.3353   39.2349 C   0  0  0  0  0  0
   16.0006   15.3758   32.9999 C   0  0  0  0  0  0
   13.9119    7.4495   34.9665 O   0  0  0  0  0  0
   15.2098   12.3809   35.9895 C   0  0  0  0  0  0
   16.4610   14.9538   30.2134 O   0  0  0  0  0  0
   13.1579    6.8120   37.9640 C   0  0  0  0  0  0
   16.2323   14.6287   35.4237 C   0  0  0  0  0  0
   15.6523   15.5661   34.3441 C   0  0  0  0  0  0
   14.2102   17.4160   33.6651 C   0  0  0  0  0  0
   13.9264   10.3196   35.9913 C   0  0  0  0  0  0
   16.3468   10.2432   35.8791 C   0  0  0  0  0  0
   13.9829   11.7026   35.9919 C   0  0  0  0  0  0
   16.3926   11.6357   35.9084 C   0  0  0  0  0  0
   14.1920   14.4650   36.9122 C   0  0  0  0  0  0
   14.7876   16.6286   34.6630 C   0  0  0  0  0  0
   12.3706    5.8285   36.7825 Cl  0  0  0  0  0  0
   14.8452    8.3867   38.6998 C   0  0  0  0  0  0
   13.3918   18.3285   28.9302 C   0  0  0  0  0  0
   12.6620    6.7590   39.2685 C   0  0  0  0  0  0
   14.3321    8.3392   39.9914 C   0  0  0  0  0  0
   13.2422    7.5220   40.2788 C   0  0  0  0  0  0
   13.0505   12.8797   40.1383 H   0  0  0  0  0  0
   16.6881   14.5813   32.7384 H   0  0  0  0  0  0
   13.2172   18.5838   31.5153 H   0  0  0  0  0  0
   16.9952   14.0117   34.9528 H   0  0  0  0  0  0
   16.7642   15.2194   36.1712 H   0  0  0  0  0  0
   13.5354   18.2153   33.9359 H   0  0  0  0  0  0
   12.9711    9.8138   36.0133 H   0  0  0  0  0  0
   17.2660    9.6811   35.8232 H   0  0  0  0  0  0
   13.0509   12.2453   36.0213 H   0  0  0  0  0  0
   17.3567   12.1213   35.9104 H   0  0  0  0  0  0
   14.5916   15.4281   37.1930 H   0  0  0  0  0  0
   13.2919   14.6243   36.3170 H   0  0  0  0  0  0
   14.5458   16.8621   35.6860 H   0  0  0  0  0  0
   15.6853    9.0333   38.5034 H   0  0  0  0  0  0
   13.5717   17.9499   27.9234 H   0  0  0  0  0  0
   12.3155   18.3068   29.0972 H   0  0  0  0  0  0
   13.7138   19.3680   28.9511 H   0  0  0  0  0  0
   11.8182    6.1235   39.4972 H   0  0  0  0  0  0
   14.7870    8.9348   40.7695 H   0  0  0  0  0  0
   12.8493    7.4753   41.2829 H   0  0  0  0  0  0
  1 16  2  0  0  0
  1  2  1  0  0  0
  1  3  1  0  0  0
  2 13  2  0  0  0
  2  6  1  0  0  0
  3  7  2  0  0  0
  4  6  1  0  0  0
  4 35  1  0  0  0
  4  7  1  0  0  0
  5 11  1  0  0  0
  5  8  1  0  0  0
  5 14  2  0  0  0
  6 20  2  0  0  0
  7 29  1  0  0  0
  8 17  2  0  0  0
  8 28  1  0  0  0
  9 18  1  0  0  0
  9 15  1  0  0  0
  9 25  1  0  0  0
 10 25  1  0  0  0
 10 12  3  0  0  0
 11 22  2  0  0  0
 11 21  1  0  0  0
 12 33  1  0  0  0
 13 34  1  0  0  0
 13 19  1  0  0  0
 15 23  1  0  0  0
 15 24  2  0  0  0
 17 27  1  0  0  0
 17 30  1  0  0  0
 18 36  1  0  0  0
 18 37  1  0  0  0
 18 19  1  0  0  0
 19 26  2  0  0  0
 20 26  1  0  0  0
 20 38  1  0  0  0
 21 23  2  0  0  0
 21 39  1  0  0  0
 22 24  1  0  0  0
 22 40  1  0  0  0
 23 41  1  0  0  0
 24 42  1  0  0  0
 25 43  1  0  0  0
 25 44  1  0  0  0
 26 45  1  0  0  0
 28 31  2  0  0  0
 28 46  1  0  0  0
 29 47  1  0  0  0
 29 48  1  0  0  0
 29 49  1  0  0  0
 30 32  2  0  0  0
 30 50  1  0  0  0
 31 32  1  0  0  0
 31 51  1  0  0  0
 32 52  1  0  0  0
M  END
> <s_m_entry_id>
41082

> <s_m_entry_name>
dock_pv.199

> <s_m_Source_Path>
/home/csk/Desktop/cluster/DUD-E-result/tysy

> <s_m_Source_File>
dock_pv.maegz

> <i_m_Source_File_Index>
199

> <chembl_id>
CHEMBL161685

> <chembl_pref_name>
None

> <i_lp_mmshare_version>
53161

> <r_lp_tautomer_probability>
0.116051

> <s_lp_Force_Field>
OPLS_2005

> <r_lp_Energy>
17.180406

> <b_lp_Chiralities_Consistent>
1

> <s_lp_Variant>
CHEMBL1952_lig355-4

> <s_i_glide_gridfile>
glide-grid_1syn

> <i_i_glide_lignum>
666

> <i_i_glide_rotatable_bonds>
7

> <r_i_docking_score>
-8.04623459711611

> <r_i_glide_ligand_efficiency>
-0.251444831159878

> <r_i_glide_ligand_efficiency_sa>
-0.798287578068097

> <r_i_glide_ligand_efficiency_ln>
-1.80177125836565

> <r_i_glide_gscore>
-8.04623459711611

> <r_i_glide_lipo>
-4.09022503045616

> <r_i_glide_hbond>
-0.32

> <r_i_glide_metal>
0

> <r_i_glide_rewards>
-1.24480333030665

> <r_i_glide_evdw>
-52.3252754211426

> <r_i_glide_ecoul>
-2.90370869636536

> <r_i_glide_erotb>
0.660613839158637

> <r_i_glide_esite>
0

> <r_i_glide_emodel>
-78.1656988756807

> <r_i_glide_energy>
-55.2289841175079

> <r_i_glide_einternal>
6.05780172348022

> <i_i_glide_confnum>
91

> <i_i_glide_posenum>
158

> <r_i_glide_eff_state_penalty>
0

> <s_user_duplicate_titles>
CHEMBL1952_lig355,266756

> <i_f3d_flags>
0

> <s_m_subgroup_title>
dock_pv

> <s_m_subgroupid>
dock_pv

> <b_m_subgroup_collapsed>
1

$$$$
CHEMBL1952_lig258
                    3D
 Schrodinger Suite 2021-1.
 60 62  0  0  1  0            999 V2000
   14.4084   11.5178   37.1150 C   0  0  0  0  0  0
   13.3253   11.4597   38.0679 C   0  0  0  0  0  0
   13.1095   10.4157   38.6868 O   0  0  0  0  0  0
   12.6146   12.5838   38.2699 N   0  0  0  0  0  0
   11.5224   12.7174   39.2501 C   0  0  1  0  0  0
   12.0570   13.3752   40.5623 C   0  0  0  0  0  0
   10.3066   13.4283   38.6129 C   0  0  0  0  0  0
    9.4066   13.8257   39.5591 O   0  0  0  0  0  0
   10.1854   13.6413   37.4254 O   0  0  0  0  0  0
   13.2945   12.6640   41.1620 C   0  0  0  0  0  0
   13.6101   13.0291   42.6109 C   0  0  0  0  0  0
   14.4043   12.0859   43.1910 O   0  0  0  0  0  0
   13.1738   14.0203   43.1915 O   0  0  0  0  0  0
   13.3906   17.8370   32.1503 N   0  0  0  0  0  0
   13.7957   17.5710   30.8729 C   0  0  0  0  0  0
   14.8002   16.8064   30.6430 N   0  0  0  0  0  0
   13.8884   17.3115   33.2937 C   0  0  0  0  0  0
   13.3925   17.5619   34.3855 O   0  0  0  0  0  0
   15.0727   16.4116   33.0472 C   0  0  0  0  0  0
   15.4819   16.2187   31.7242 C   0  0  0  0  0  0
   16.5968   15.4290   31.4610 C   0  0  0  0  0  0
   17.2983   14.8411   32.5161 C   0  0  0  0  0  0
   16.8482   14.9792   33.8396 C   0  0  0  0  0  0
   15.7341   15.7831   34.1044 C   0  0  0  0  0  0
   17.5554   14.2680   34.9968 C   0  0  0  0  0  0
   17.3757   12.8014   34.9800 N   0  0  0  0  0  0
   13.0381   18.2219   29.7376 C   0  0  0  0  0  0
   16.3415   12.1688   35.6820 C   0  0  0  0  0  0
   15.0653   13.0356   36.5285 S   0  0  0  0  0  0
   15.0710   10.4862   36.6675 N   0  0  0  0  0  0
   16.0924   10.8095   35.9122 C   0  0  0  0  0  0
   18.2469   12.1727   33.9586 C   0  0  0  0  0  0
   18.7177   10.7217   34.1813 C   0  0  0  0  0  0
   19.4132   10.4789   35.5255 C   0  0  0  0  0  0
   20.6028   11.2265   35.5910 O   0  0  0  0  0  0
   12.7652   13.3759   37.6624 H   0  0  0  0  0  0
   11.1482   11.7236   39.5018 H   0  0  0  0  0  0
   11.2631   13.4048   41.3084 H   0  0  0  0  0  0
   12.3224   14.4137   40.3672 H   0  0  0  0  0  0
    8.7113   14.3385   39.1323 H   0  0  0  0  0  0
   14.1797   12.8673   40.5599 H   0  0  0  0  0  0
   13.1341   11.5867   41.1291 H   0  0  0  0  0  0
   14.5967   12.2260   44.1311 H   0  0  0  0  0  0
   12.6242   18.4726   32.2959 H   0  0  0  0  0  0
   16.9240   15.2875   30.4426 H   0  0  0  0  0  0
   18.1823   14.2630   32.2891 H   0  0  0  0  0  0
   15.3841   15.9134   35.1212 H   0  0  0  0  0  0
   17.2055   14.6743   35.9469 H   0  0  0  0  0  0
   18.6164   14.5219   34.9790 H   0  0  0  0  0  0
   13.4475   19.2064   29.5101 H   0  0  0  0  0  0
   13.0918   17.6199   28.8300 H   0  0  0  0  0  0
   11.9794   18.3480   29.9795 H   0  0  0  0  0  0
   16.6687    9.9705   35.5773 H   0  0  0  0  0  0
   17.7920   12.2285   32.9728 H   0  0  0  0  0  0
   19.1566   12.7749   33.9191 H   0  0  0  0  0  0
   17.9013   10.0244   34.0228 H   0  0  0  0  0  0
   19.3904   10.4314   33.3798 H   0  0  0  0  0  0
   18.7917   10.8007   36.3595 H   0  0  0  0  0  0
   19.6082    9.4279   35.6692 H   0  0  0  0  0  0
   20.9748   11.3000   34.6902 H   0  0  0  0  0  0
  1  2  1  0  0  0
  1 29  1  0  0  0
  1 30  2  0  0  0
  2  3  2  0  0  0
  2  4  1  0  0  0
  4  5  1  0  0  0
  4 36  1  0  0  0
  5  6  1  0  0  0
  5  7  1  0  0  0
  5 37  1  0  0  0
  6 10  1  0  0  0
  6 38  1  0  0  0
  6 39  1  0  0  0
  7  9  2  0  0  0
  7  8  1  0  0  0
  8 40  1  0  0  0
 10 11  1  0  0  0
 10 41  1  0  0  0
 10 42  1  0  0  0
 11 12  1  0  0  0
 11 13  2  0  0  0
 12 43  1  0  0  0
 14 15  1  0  0  0
 14 17  1  0  0  0
 14 44  1  0  0  0
 15 27  1  0  0  0
 15 16  2  0  0  0
 16 20  1  0  0  0
 17 18  2  0  0  0
 17 19  1  0  0  0
 19 20  2  0  0  0
 19 24  1  0  0  0
 20 21  1  0  0  0
 21 22  2  0  0  0
 21 45  1  0  0  0
 22 23  1  0  0  0
 22 46  1  0  0  0
 23 24  2  0  0  0
 23 25  1  0  0  0
 24 47  1  0  0  0
 25 26  1  0  0  0
 25 48  1  0  0  0
 25 49  1  0  0  0
 26 28  1  0  0  0
 26 32  1  0  0  0
 27 50  1  0  0  0
 27 51  1  0  0  0
 27 52  1  0  0  0
 28 29  1  0  0  0
 28 31  2  0  0  0
 30 31  1  0  0  0
 31 53  1  0  0  0
 32 33  1  0  0  0
 32 54  1  0  0  0
 32 55  1  0  0  0
 33 34  1  0  0  0
 33 56  1  0  0  0
 33 57  1  0  0  0
 34 35  1  0  0  0
 34 58  1  0  0  0
 34 59  1  0  0  0
 35 60  1  0  0  0
M  END
> <s_m_entry_id>
41083

> <s_m_entry_name>
dock_pv.200

> <s_m_Source_Path>
/home/csk/Desktop/cluster/DUD-E-result/tysy

> <s_m_Source_File>
dock_pv.maegz

> <i_m_Source_File_Index>
200

> <chembl_id>
CHEMBL1097201

> <chembl_pref_name>
None

> <i_lp_mmshare_version>
53161

> <r_lp_tautomer_probability>
0.883938

> <s_lp_Force_Field>
OPLS_2005

> <r_lp_Energy>
19.500268

> <b_lp_Chiralities_Consistent>
1

> <s_lp_Variant>
CHEMBL1952_lig258-1

> <s_i_glide_gridfile>
glide-grid_1syn

> <i_i_glide_lignum>
512

> <i_i_glide_rotatable_bonds>
16

> <r_i_docking_score>
-8.04363109547182

> <r_i_glide_ligand_efficiency>
-0.229818031299195

> <r_i_glide_ligand_efficiency_sa>
-0.751750018765752

> <r_i_glide_ligand_efficiency_ln>
-1.76575554422989

> <r_i_glide_gscore>
-8.04363109547182

> <r_i_glide_lipo>
-3.23000772805505

> <r_i_glide_hbond>
-0.147573119766816

> <r_i_glide_metal>
0

> <r_i_glide_rewards>
-0.698474774069677

> <r_i_glide_evdw>
-57.341869354248

> <r_i_glide_ecoul>
-14.323618888855

> <r_i_glide_erotb>
1.04806082746037

> <r_i_glide_esite>
0

> <r_i_glide_emodel>
-103.716323020412

> <r_i_glide_energy>
-71.665488243103

> <r_i_glide_einternal>
10.321551322937

> <i_i_glide_confnum>
27

> <i_i_glide_posenum>
266

> <r_i_glide_eff_state_penalty>
0

> <s_user_duplicate_titles>
CHEMBL1952_lig258,CHEMBL1952_lig258

> <i_f3d_flags>
0

> <s_m_subgroup_title>
dock_pv

> <s_m_subgroupid>
dock_pv

> <b_m_subgroup_collapsed>
1

$$$$
CHEMBL1952_lig62
                    3D
 Schrodinger Suite 2021-1.
 27 29  0  0  1  0            999 V2000
   16.1956   16.0563   33.1579 C   0  0  0  0  0  0
   15.7057   16.0101   31.7967 C   0  0  0  0  0  0
   17.1251   15.1841   33.6149 N   0  0  0  0  0  0
   17.6303   14.2979   32.7396 C   0  0  0  0  0  0
   17.3043   14.1819   31.4430 N   0  0  0  0  0  0
   14.6973   16.8451   31.1998 C   0  0  0  0  0  0
   16.3558   15.0313   30.9742 C   0  0  0  0  0  0
   13.8569   17.7551   31.9214 C   0  0  0  0  0  0
   14.4911   16.7731   29.7836 C   0  0  0  0  0  0
   12.9935   18.6289   31.2655 C   0  0  0  0  0  0
   12.9160   18.6240   29.8749 C   0  0  0  0  0  0
   13.6266   17.6875   29.1410 C   0  0  0  0  0  0
   15.7660   17.0532   33.9854 O   0  0  0  0  0  0
   16.0426   14.9185   29.6130 C   0  0  0  0  0  0
   15.1496   15.7904   29.0242 C   0  0  0  0  0  0
   18.5931   13.4274   33.2129 N   0  0  0  0  0  0
   12.1349   19.5478   29.1900 N   0  0  0  0  0  0
   11.9356   19.8276   32.3118 Br  0  0  0  0  0  0
   13.8232   17.7902   32.9945 H   0  0  0  0  0  0
   13.5263   17.6519   28.0648 H   0  0  0  0  0  0
   15.3208   17.7500   33.5035 H   0  0  0  0  0  0
   16.5354   14.1635   29.0182 H   0  0  0  0  0  0
   14.9520   15.7122   27.9657 H   0  0  0  0  0  0
   19.1191   12.8709   32.5419 H   0  0  0  0  0  0
   18.9478   13.5769   34.1419 H   0  0  0  0  0  0
   11.2860   19.8272   29.6765 H   0  0  0  0  0  0
   12.0360   19.4023   28.1968 H   0  0  0  0  0  0
  1  2  1  0  0  0
  1  3  2  0  0  0
  1 13  1  0  0  0
  2  6  2  0  0  0
  2  7  1  0  0  0
  3  4  1  0  0  0
  4  5  2  0  0  0
  4 16  1  0  0  0
  5  7  1  0  0  0
  6  8  1  0  0  0
  6  9  1  0  0  0
  7 14  2  0  0  0
  8 10  2  0  0  0
  8 19  1  0  0  0
  9 12  1  0  0  0
  9 15  2  0  0  0
 10 18  1  0  0  0
 10 11  1  0  0  0
 11 12  2  0  0  0
 11 17  1  0  0  0
 12 20  1  0  0  0
 13 21  1  0  0  0
 14 15  1  0  0  0
 14 22  1  0  0  0
 15 23  1  0  0  0
 16 24  1  0  0  0
 16 25  1  0  0  0
 17 26  1  0  0  0
 17 27  1  0  0  0
M  END
> <s_m_entry_id>
41084

> <s_m_entry_name>
dock_pv.201

> <s_m_Source_Path>
/home/csk/Desktop/cluster/DUD-E-result/tysy

> <s_m_Source_File>
dock_pv.maegz

> <i_m_Source_File_Index>
201

> <chembl_id>
CHEMBL75044

> <chembl_pref_name>
None

> <i_lp_mmshare_version>
53161

> <r_lp_tautomer_probability>
1

> <s_lp_Force_Field>
OPLS_2005

> <r_lp_Energy>
13.96861

> <b_lp_Chiralities_Consistent>
1

> <s_lp_Variant>
CHEMBL1952_lig62-1

> <s_i_glide_gridfile>
glide-grid_1syn

> <i_i_glide_lignum>
94

> <i_i_glide_rotatable_bonds>
1

> <r_i_docking_score>
-8.04315333017251

> <r_i_glide_ligand_efficiency>
-0.446841851676251

> <r_i_glide_ligand_efficiency_sa>
-1.17105693622464

> <r_i_glide_ligand_efficiency_ln>
-2.0674510896928

> <r_i_glide_gscore>
-8.04315333017251

> <r_i_glide_lipo>
-3.14126116761476

> <r_i_glide_hbond>
-0.43498368835772

> <r_i_glide_metal>
0

> <r_i_glide_rewards>
-1.70410781012497

> <r_i_glide_evdw>
-36.5388603210449

> <r_i_glide_ecoul>
-5.20111227035522

> <r_i_glide_erotb>
0

> <r_i_glide_esite>
-0.155690807469524

> <r_i_glide_emodel>
-63.2420032714405

> <r_i_glide_energy>
-41.7399725914001

> <r_i_glide_einternal>
0.000313040014589205

> <i_i_glide_confnum>
1

> <i_i_glide_posenum>
258

> <r_i_glide_eff_state_penalty>
0

> <s_user_duplicate_titles>
CHEMBL1952_lig62

> <i_f3d_flags>
0

> <s_m_subgroup_title>
dock_pv

> <s_m_subgroupid>
dock_pv

> <b_m_subgroup_collapsed>
1

$$$$
CHEMBL1952_lig419
                    3D
 Schrodinger Suite 2021-1.
 41 43  0  0  1  0            999 V2000
   15.2839   16.6564   31.9583 C   0  0  0  0  0  0
   14.8675   17.7600   32.9304 C   0  0  0  0  0  0
   13.7937   18.4662   32.5087 N   0  0  0  0  0  0
   16.3648   15.7657   32.1682 C   0  0  0  0  0  0
   13.4639   17.4216   30.4848 N   0  0  0  0  0  0
   14.5483   16.5799   30.7633 C   0  0  0  0  0  0
   13.1259   18.3169   31.3307 C   0  0  0  0  0  0
   16.5009   12.5046   35.7632 C   0  0  0  0  0  0
   17.1664   13.4250   34.9340 C   0  0  0  0  0  0
   17.3919   15.8281   33.6237 S   0  0  0  0  0  0
   15.3268   12.8432   36.3741 N   0  0  0  0  0  0
   16.5976   14.6802   34.7076 C   0  0  0  0  0  0
   16.6751   14.8201   31.1668 C   0  0  0  0  0  0
   15.3919   18.0840   33.9906 O   0  0  0  0  0  0
   17.0052   11.1939   35.9790 N   0  0  0  0  0  0
   14.8693   15.6481   29.7859 C   0  0  0  0  0  0
   15.9289   14.7735   29.9864 C   0  0  0  0  0  0
   14.8057   14.0773   36.1746 C   0  0  0  0  0  0
   15.4068   15.0212   35.3489 C   0  0  0  0  0  0
   11.9402   19.2011   31.0601 C   0  0  0  0  0  0
   18.2738   10.7684   35.3884 C   0  0  0  0  0  0
   16.1157   10.1688   36.5269 C   0  0  0  0  0  0
   17.8269   13.8314   31.3118 C   0  0  0  0  0  0
   18.0935   13.1741   34.4405 H   0  0  0  0  0  0
   13.5037   19.1952   33.1448 H   0  0  0  0  0  0
   14.3008   15.6064   28.8691 H   0  0  0  0  0  0
   16.1653   14.0511   29.2170 H   0  0  0  0  0  0
   13.8836   14.3041   36.6896 H   0  0  0  0  0  0
   14.9544   15.9906   35.2221 H   0  0  0  0  0  0
   11.0222   18.6278   31.1911 H   0  0  0  0  0  0
   11.9055   20.0671   31.7224 H   0  0  0  0  0  0
   11.9503   19.5688   30.0329 H   0  0  0  0  0  0
   19.0556   11.5099   35.5568 H   0  0  0  0  0  0
   18.6246    9.8285   35.8159 H   0  0  0  0  0  0
   18.1805   10.6360   34.3098 H   0  0  0  0  0  0
   15.7747   10.4509   37.5249 H   0  0  0  0  0  0
   15.2288   10.0675   35.8974 H   0  0  0  0  0  0
   16.5921    9.1913   36.5846 H   0  0  0  0  0  0
   18.7529   14.3473   31.5675 H   0  0  0  0  0  0
   17.6162   13.1083   32.0992 H   0  0  0  0  0  0
   18.0137   13.2797   30.3926 H   0  0  0  0  0  0
  1  2  1  0  0  0
  1  4  1  0  0  0
  1  6  2  0  0  0
  2 14  2  0  0  0
  2  3  1  0  0  0
  3  7  1  0  0  0
  3 25  1  0  0  0
  4 10  1  0  0  0
  4 13  2  0  0  0
  5  6  1  0  0  0
  5  7  2  0  0  0
  6 16  1  0  0  0
  7 20  1  0  0  0
  8  9  1  0  0  0
  8 15  1  0  0  0
  8 11  2  0  0  0
  9 12  2  0  0  0
  9 24  1  0  0  0
 10 12  1  0  0  0
 11 18  1  0  0  0
 12 19  1  0  0  0
 13 23  1  0  0  0
 13 17  1  0  0  0
 15 21  1  0  0  0
 15 22  1  0  0  0
 16 17  2  0  0  0
 16 26  1  0  0  0
 17 27  1  0  0  0
 18 19  2  0  0  0
 18 28  1  0  0  0
 19 29  1  0  0  0
 20 30  1  0  0  0
 20 31  1  0  0  0
 20 32  1  0  0  0
 21 33  1  0  0  0
 21 34  1  0  0  0
 21 35  1  0  0  0
 22 36  1  0  0  0
 22 37  1  0  0  0
 22 38  1  0  0  0
 23 39  1  0  0  0
 23 40  1  0  0  0
 23 41  1  0  0  0
M  END
> <s_m_entry_id>
41085

> <s_m_entry_name>
dock_pv.202

> <s_m_Source_Path>
/home/csk/Desktop/cluster/DUD-E-result/tysy

> <s_m_Source_File>
dock_pv.maegz

> <i_m_Source_File_Index>
202

> <chembl_id>
CHEMBL349969

> <chembl_pref_name>
None

> <i_lp_mmshare_version>
53161

> <r_lp_tautomer_probability>
0.883938

> <s_lp_Force_Field>
OPLS_2005

> <r_lp_Energy>
23.676163

> <b_lp_Chiralities_Consistent>
1

> <s_lp_Variant>
CHEMBL1952_lig419-1

> <s_i_glide_gridfile>
glide-grid_1syn

> <i_i_glide_lignum>
815

> <i_i_glide_rotatable_bonds>
3

> <r_i_docking_score>
-8.03733908204341

> <r_i_glide_ligand_efficiency>
-0.349449525306235

> <r_i_glide_ligand_efficiency_sa>
-0.993787965104535

> <r_i_glide_ligand_efficiency_ln>
-1.94350146859959

> <r_i_glide_gscore>
-8.03733908204341

> <r_i_glide_lipo>
-3.7711223210898

> <r_i_glide_hbond>
0

> <r_i_glide_metal>
0

> <r_i_glide_rewards>
-1.81802958877102

> <r_i_glide_evdw>
-46.8938026428223

> <r_i_glide_ecoul>
-3.0368959903717

> <r_i_glide_erotb>
0.352037358514282

> <r_i_glide_esite>
0

> <r_i_glide_emodel>
-73.9468643063892

> <r_i_glide_energy>
-49.930698633194

> <r_i_glide_einternal>
1.20086228847504

> <i_i_glide_confnum>
1

> <i_i_glide_posenum>
41

> <r_i_glide_eff_state_penalty>
0

> <s_user_duplicate_titles>
CHEMBL1952_lig419,CHEMBL1952_lig419,273598

> <i_f3d_flags>
0

> <s_m_subgroup_title>
dock_pv

> <s_m_subgroupid>
dock_pv

> <b_m_subgroup_collapsed>
1

$$$$
CHEMBL1952_lig114
                    3D
 Schrodinger Suite 2021-1.
 57 59  0  0  1  0            999 V2000
   13.3401   18.4422   31.7106 N   0  0  0  0  0  0
   15.2074   16.9564   32.1388 C   0  0  0  0  0  0
   14.3366   18.0235   32.5230 C   0  0  0  0  0  0
   13.2128   17.8287   30.5175 C   0  0  0  0  0  0
   13.9695   16.8173   30.0404 N   0  0  0  0  0  0
   14.9620   16.3707   30.8598 C   0  0  0  0  0  0
   16.2155   16.5081   32.9425 N   0  0  0  0  0  0
   13.4769   13.2544   38.0676 C   0  0  0  0  0  0
   13.7547   12.5264   39.1647 N   0  0  0  0  0  0
   11.6296   11.3495   39.8472 C   0  0  0  0  0  0
   17.7403   13.6446   34.1946 N   0  0  0  0  0  0
   18.6639   11.2995   33.9326 C   0  0  0  0  0  0
   12.8089   12.2547   40.2552 C   0  0  1  0  0  0
   18.5918   10.0946   33.7431 C   0  0  0  0  0  0
   14.5889   13.3396   37.0624 C   0  0  0  0  0  0
   16.9440   15.4264   32.5552 C   0  0  0  0  0  0
   13.4784   13.7033   43.0774 C   0  0  0  0  0  0
   14.5422   18.6091   33.7454 O   0  0  0  0  0  0
   16.7133   13.5448   35.1918 C   0  0  0  0  0  0
   18.0207   14.9474   33.5382 C   0  0  0  0  0  0
   12.4046   13.8281   37.8837 O   0  0  0  0  0  0
   10.5532   11.4289   40.3898 O   0  0  0  0  0  0
   15.7826   15.2889   30.4510 C   0  0  0  0  0  0
   12.1952   18.2772   29.6985 N   0  0  0  0  0  0
   12.8747   14.6279   42.5444 O   0  0  0  0  0  0
   15.4053   12.2400   36.7931 C   0  0  0  0  0  0
   14.8295   14.5358   36.3931 C   0  0  0  0  0  0
   15.8946   14.6386   35.5112 C   0  0  0  0  0  0
   16.4485   12.3486   35.8839 C   0  0  0  0  0  0
   13.5453   11.6927   41.5058 C   0  0  0  0  0  0
   14.3674   12.7311   42.3036 C   0  0  0  0  0  0
   18.9042   12.7302   34.2216 C   0  0  0  0  0  0
   11.9689   10.4702   38.8601 O   0  0  0  0  0  0
   16.7684   14.8070   31.3163 C   0  0  0  0  0  0
   13.3940   13.4279   44.4104 O   0  0  0  0  0  0
   14.6989   12.1891   39.2758 H   0  0  0  0  0  0
   12.3417   13.2093   40.5021 H   0  0  0  0  0  0
   18.5857    9.0413   33.5786 H   0  0  0  0  0  0
   13.8831   19.2934   33.9152 H   0  0  0  0  0  0
   18.9588   14.9200   32.9817 H   0  0  0  0  0  0
   18.1828   15.7048   34.3077 H   0  0  0  0  0  0
   15.6151   14.8291   29.4872 H   0  0  0  0  0  0
   11.5751   19.0062   30.0251 H   0  0  0  0  0  0
   12.0922   17.8601   28.7899 H   0  0  0  0  0  0
   15.2497   11.2900   37.2839 H   0  0  0  0  0  0
   14.2332   15.4146   36.5857 H   0  0  0  0  0  0
   16.0651   15.6158   35.1132 H   0  0  0  0  0  0
   17.0231   11.4541   35.7514 H   0  0  0  0  0  0
   12.8267   11.2451   42.1960 H   0  0  0  0  0  0
   14.1921   10.8657   41.2108 H   0  0  0  0  0  0
   15.0459   12.2287   42.9944 H   0  0  0  0  0  0
   14.9914   13.3145   41.6290 H   0  0  0  0  0  0
   19.6608   13.0333   33.4973 H   0  0  0  0  0  0
   19.3927   12.7877   35.1910 H   0  0  0  0  0  0
   12.8499   10.6445   38.5245 H   0  0  0  0  0  0
   17.3822   13.9610   31.0358 H   0  0  0  0  0  0
   13.9999   12.7372   44.7160 H   0  0  0  0  0  0
  1  3  2  0  0  0
  1  4  1  0  0  0
  2  3  1  0  0  0
  2  7  2  0  0  0
  2  6  1  0  0  0
  3 18  1  0  0  0
  4  5  2  0  0  0
  4 24  1  0  0  0
  5  6  1  0  0  0
  6 23  2  0  0  0
  7 16  1  0  0  0
  8 15  1  0  0  0
  8  9  1  0  0  0
  8 21  2  0  0  0
  9 13  1  0  0  0
  9 36  1  0  0  0
 10 13  1  0  0  0
 10 22  2  0  0  0
 10 33  1  0  0  0
 11 20  1  0  0  0
 11 19  1  0  0  0
 11 32  1  0  0  0
 12 32  1  0  0  0
 12 14  3  0  0  0
 13 30  1  0  0  0
 13 37  1  0  0  0
 14 38  1  0  0  0
 15 26  2  0  0  0
 15 27  1  0  0  0
 16 20  1  0  0  0
 16 34  2  0  0  0
 17 31  1  0  0  0
 17 25  2  0  0  0
 17 35  1  0  0  0
 18 39  1  0  0  0
 19 28  1  0  0  0
 19 29  2  0  0  0
 20 40  1  0  0  0
 20 41  1  0  0  0
 23 34  1  0  0  0
 23 42  1  0  0  0
 24 43  1  0  0  0
 24 44  1  0  0  0
 26 29  1  0  0  0
 26 45  1  0  0  0
 27 28  2  0  0  0
 27 46  1  0  0  0
 28 47  1  0  0  0
 29 48  1  0  0  0
 30 31  1  0  0  0
 30 49  1  0  0  0
 30 50  1  0  0  0
 31 51  1  0  0  0
 31 52  1  0  0  0
 32 53  1  0  0  0
 32 54  1  0  0  0
 33 55  1  0  0  0
 34 56  1  0  0  0
 35 57  1  0  0  0
M  END
> <s_m_entry_id>
41087

> <s_m_entry_name>
dock_pv.204

> <s_m_Source_Path>
/home/csk/Desktop/cluster/DUD-E-result/tysy

> <s_m_Source_File>
dock_pv.maegz

> <i_m_Source_File_Index>
204

> <chembl_id>
CHEMBL325744

> <chembl_pref_name>
None

> <i_lp_mmshare_version>
53161

> <r_lp_tautomer_probability>
1

> <s_lp_Force_Field>
OPLS_2005

> <r_lp_Energy>
16.628579

> <b_lp_Chiralities_Consistent>
1

> <s_lp_Variant>
CHEMBL1952_lig114-1

> <s_i_glide_gridfile>
glide-grid_1syn

> <i_i_glide_lignum>
290

> <i_i_glide_rotatable_bonds>
15

> <r_i_docking_score>
-8.03022089259126

> <r_i_glide_ligand_efficiency>
-0.229434882645465

> <r_i_glide_ligand_efficiency_sa>
-0.750496714114226

> <r_i_glide_ligand_efficiency_ln>
-1.76281170707419

> <r_i_glide_gscore>
-8.03022089259126

> <r_i_glide_lipo>
-3.36072177389143

> <r_i_glide_hbond>
-0.338171291564775

> <r_i_glide_metal>
0

> <r_i_glide_rewards>
-0.797182985884117

> <r_i_glide_evdw>
-56.765209197998

> <r_i_glide_ecoul>
-11.3760032653809

> <r_i_glide_erotb>
1.06226459410414

> <r_i_glide_esite>
-0.0517484856480502

> <r_i_glide_emodel>
-96.355073049794

> <r_i_glide_energy>
-68.1412124633789

> <r_i_glide_einternal>
11.1454334259033

> <i_i_glide_confnum>
212

> <i_i_glide_posenum>
134

> <r_i_glide_eff_state_penalty>
0

> <s_user_duplicate_titles>
CHEMBL1952_lig114

> <i_f3d_flags>
0

> <s_m_subgroup_title>
dock_pv

> <s_m_subgroupid>
dock_pv

> <b_m_subgroup_collapsed>
1

$$$$
CHEMBL1952_lig61
                    3D
 Schrodinger Suite 2021-1.
 38 41  0  0  1  0            999 V2000
   15.8836   16.4309   33.0987 C   0  0  0  0  0  0
   15.4092   16.4010   31.7309 C   0  0  0  0  0  0
   16.8786   15.6228   33.5334 N   0  0  0  0  0  0
   17.4217   14.7433   32.6635 C   0  0  0  0  0  0
   17.0651   14.6166   31.3742 N   0  0  0  0  0  0
   16.0786   15.4278   30.9145 C   0  0  0  0  0  0
   14.3956   17.2287   31.1218 C   0  0  0  0  0  0
   18.4178   13.8557   33.0936 N   0  0  0  0  0  0
   15.3158   17.2859   33.9973 O   0  0  0  0  0  0
   14.1163   17.0568   29.7250 C   0  0  0  0  0  0
   13.6371   18.2488   31.7967 C   0  0  0  0  0  0
   15.7436   15.2646   29.5648 C   0  0  0  0  0  0
   14.7904   16.0702   28.9812 C   0  0  0  0  0  0
   13.1654   17.8779   29.0745 C   0  0  0  0  0  0
   12.6837   19.0193   31.1323 C   0  0  0  0  0  0
   18.7683   13.6871   34.5007 C   0  0  0  0  0  0
   12.4541   18.8370   29.7772 C   0  0  0  0  0  0
   11.7931   20.2269   31.9917 Cl  0  0  0  0  0  0
   17.7572   12.7812   35.1909 C   0  0  0  0  0  0
   16.6302   13.3298   35.8128 C   0  0  0  0  0  0
   17.9283   11.3945   35.1592 C   0  0  0  0  0  0
   16.9693   10.5605   35.7279 C   0  0  0  0  0  0
   15.6760   12.4966   36.3894 C   0  0  0  0  0  0
   15.8501   11.1147   36.3451 C   0  0  0  0  0  0
   18.8452   13.2362   32.4132 H   0  0  0  0  0  0
   14.5096   17.6772   33.6688 H   0  0  0  0  0  0
   13.7592   18.5057   32.8288 H   0  0  0  0  0  0
   16.2458   14.5111   28.9725 H   0  0  0  0  0  0
   14.5714   15.9451   27.9303 H   0  0  0  0  0  0
   12.9908   17.7505   28.0154 H   0  0  0  0  0  0
   18.8134   14.6525   35.0107 H   0  0  0  0  0  0
   19.7672   13.2511   34.5646 H   0  0  0  0  0  0
   11.7164   19.4419   29.2674 H   0  0  0  0  0  0
   16.4907   14.4000   35.8492 H   0  0  0  0  0  0
   18.7917   10.9672   34.6670 H   0  0  0  0  0  0
   17.0847    9.4893   35.6781 H   0  0  0  0  0  0
   14.8057   12.9237   36.8685 H   0  0  0  0  0  0
   15.1048   10.4693   36.7826 H   0  0  0  0  0  0
  1  2  1  0  0  0
  1  3  2  0  0  0
  1  9  1  0  0  0
  2  6  2  0  0  0
  2  7  1  0  0  0
  3  4  1  0  0  0
  4  5  2  0  0  0
  4  8  1  0  0  0
  5  6  1  0  0  0
  6 12  1  0  0  0
  7 10  2  0  0  0
  7 11  1  0  0  0
  8 16  1  0  0  0
  8 25  1  0  0  0
  9 26  1  0  0  0
 10 13  1  0  0  0
 10 14  1  0  0  0
 11 15  2  0  0  0
 11 27  1  0  0  0
 12 13  2  0  0  0
 12 28  1  0  0  0
 13 29  1  0  0  0
 14 17  2  0  0  0
 14 30  1  0  0  0
 15 17  1  0  0  0
 15 18  1  0  0  0
 16 19  1  0  0  0
 16 31  1  0  0  0
 16 32  1  0  0  0
 17 33  1  0  0  0
 19 20  1  0  0  0
 19 21  2  0  0  0
 20 23  2  0  0  0
 20 34  1  0  0  0
 21 22  1  0  0  0
 21 35  1  0  0  0
 22 24  2  0  0  0
 22 36  1  0  0  0
 23 24  1  0  0  0
 23 37  1  0  0  0
 24 38  1  0  0  0
M  END
> <s_m_entry_id>
41088

> <s_m_entry_name>
dock_pv.205

> <s_m_Source_Path>
/home/csk/Desktop/cluster/DUD-E-result/tysy

> <s_m_Source_File>
dock_pv.maegz

> <i_m_Source_File_Index>
205

> <chembl_id>
CHEMBL76122

> <chembl_pref_name>
None

> <i_lp_mmshare_version>
53161

> <r_lp_tautomer_probability>
1

> <s_lp_Force_Field>
OPLS_2005

> <r_lp_Energy>
17.036587

> <b_lp_Chiralities_Consistent>
1

> <s_lp_Variant>
CHEMBL1952_lig61-1

> <s_i_glide_gridfile>
glide-grid_1syn

> <i_i_glide_lignum>
93

> <i_i_glide_rotatable_bonds>
4

> <r_i_docking_score>
-8.02656787908042

> <r_i_glide_ligand_efficiency>
-0.334440328295018

> <r_i_glide_ligand_efficiency_sa>
-0.964692838531967

> <r_i_glide_ligand_efficiency_ln>
-1.92112600866418

> <r_i_glide_gscore>
-8.02656787908042

> <r_i_glide_lipo>
-4.20701987394293

> <r_i_glide_hbond>
-0.0205849737063783

> <r_i_glide_metal>
0

> <r_i_glide_rewards>
-1.51597640078199

> <r_i_glide_evdw>
-48.6090126037598

> <r_i_glide_ecoul>
-2.0529100894928

> <r_i_glide_erotb>
0.502284722240304

> <r_i_glide_esite>
-0.046884209277525

> <r_i_glide_emodel>
-74.6167593614104

> <r_i_glide_energy>
-50.6619226932526

> <r_i_glide_einternal>
2.28008246421814

> <i_i_glide_confnum>
30

> <i_i_glide_posenum>
210

> <r_i_glide_eff_state_penalty>
0

> <s_user_duplicate_titles>
CHEMBL1952_lig61

> <i_f3d_flags>
0

> <s_m_subgroup_title>
dock_pv

> <s_m_subgroupid>
dock_pv

> <b_m_subgroup_collapsed>
1

$$$$
CHEMBL1952_lig57
                    3D
 Schrodinger Suite 2021-1.
 57 60  0  0  1  0            999 V2000
   14.1602    9.8657   36.3230 N   0  0  0  0  0  0
   15.1389    9.3079   37.1243 C   0  0  0  0  0  0
   14.8420    8.0491   37.5776 N   0  0  0  0  0  0
   14.2583   11.2842   35.9924 C   0  0  2  0  0  0
   12.9930    9.1701   36.0664 C   0  0  0  0  0  0
   12.7252    7.9448   36.5702 C   0  0  0  0  0  0
   16.0634   16.1906   32.3227 C   0  0  2  0  0  0
   13.7275    7.2897   37.3944 C   0  0  0  0  0  0
   15.0218   15.8500   31.2059 C   0  0  2  0  0  0
   18.1403   14.6541   33.5103 P   0  0  2  0  0  0
   15.4581   11.6370   35.3539 O   0  0  0  0  0  0
   15.2874   15.9162   28.8568 N   0  0  0  0  0  0
   14.0122   12.2826   37.1177 C   0  0  0  0  0  0
   15.6404   15.3140   29.9169 C   0  0  0  0  0  0
   16.5944   14.9534   32.8964 N   0  0  3  0  0  0
   15.7836   13.0100   35.5669 C   0  0  1  0  0  0
   14.1973   16.9612   30.6006 C   0  0  0  0  0  0
   15.4601   17.0557   33.4101 C   0  0  0  0  0  0
   15.1074   13.3137   36.9040 C   0  0  1  0  0  0
   14.4167   16.9296   29.2372 C   0  0  0  0  0  0
   17.3213   13.2057   35.5925 C   0  0  0  0  0  0
   16.1917    9.8282   37.4806 O   0  0  0  0  0  0
   17.9266   13.2371   34.2992 O   0  0  0  0  0  0
   18.7676   15.7276   34.3262 O   0  0  0  0  0  0
   13.6187    6.1764   37.9038 O   0  0  0  0  0  0
   15.7913   18.2271   33.5910 O   0  0  0  0  0  0
   11.5432    7.3263   36.3703 F   0  0  0  0  0  0
   18.9709   14.2272   32.1832 O   0  0  0  0  0  0
   14.4960   16.4034   34.0918 O   0  0  0  0  0  0
   14.5919   14.6276   37.0129 O   0  0  0  0  0  0
   13.2787   17.8685   31.1411 C   0  0  0  0  0  0
   13.7706   17.8286   28.3908 C   0  0  0  0  0  0
   13.7865   17.0512   35.1234 C   0  0  0  0  0  0
   12.6014   18.7538   30.2970 C   0  0  0  0  0  0
   12.8605   18.7430   28.9249 C   0  0  0  0  0  0
   15.5438    7.6260   38.1624 H   0  0  0  0  0  0
   13.4865   11.4286   35.2357 H   0  0  0  0  0  0
   12.2782    9.7052   35.4573 H   0  0  0  0  0  0
   16.9055   16.7365   31.9034 H   0  0  0  0  0  0
   14.3306   15.0975   31.5905 H   0  0  0  0  0  0
   14.0931   11.8079   38.0979 H   0  0  0  0  0  0
   13.0051   12.6937   37.0161 H   0  0  0  0  0  0
   16.3254   14.4713   29.8891 H   0  0  0  0  0  0
   15.9376   14.1744   32.9066 H   0  0  0  0  0  0
   15.3465   13.6458   34.7937 H   0  0  0  0  0  0
   15.8466   13.1376   37.6771 H   0  0  0  0  0  0
   17.7833   12.4043   36.1713 H   0  0  0  0  0  0
   17.5656   14.1307   36.1168 H   0  0  0  0  0  0
   19.4579   13.3739   32.2194 H   0  0  0  0  0  0
   15.2927   15.2394   37.2764 H   0  0  0  0  0  0
   13.0571   17.8873   32.1966 H   0  0  0  0  0  0
   13.9302   17.8023   27.3242 H   0  0  0  0  0  0
   12.9812   16.3971   35.4479 H   0  0  0  0  0  0
   14.4450   17.2392   35.9713 H   0  0  0  0  0  0
   13.3628   18.0004   34.7901 H   0  0  0  0  0  0
   11.8774   19.4478   30.7025 H   0  0  0  0  0  0
   12.3331   19.4256   28.2743 H   0  0  0  0  0  0
  1  2  1  0  0  0
  1  4  1  0  0  0
  1  5  1  0  0  0
  2  3  1  0  0  0
  2 22  2  0  0  0
  3  8  1  0  0  0
  3 36  1  0  0  0
  4 11  1  0  0  0
  4 13  1  0  0  0
  4 37  1  0  0  0
  5  6  2  0  0  0
  5 38  1  0  0  0
  6  8  1  0  0  0
  6 27  1  0  0  0
  7 15  1  0  0  0
  7  9  1  0  0  0
  7 18  1  0  0  0
  7 39  1  0  0  0
  8 25  2  0  0  0
  9 14  1  0  0  0
  9 17  1  0  0  0
  9 40  1  0  0  0
 10 23  1  0  0  0
 10 15  1  0  0  0
 10 24  2  0  0  0
 10 28  1  0  0  0
 11 16  1  0  0  0
 12 14  2  0  0  0
 12 20  1  0  0  0
 13 19  1  0  0  0
 13 41  1  0  0  0
 13 42  1  0  0  0
 14 43  1  0  0  0
 15 44  1  0  0  0
 16 21  1  0  0  0
 16 19  1  0  0  0
 16 45  1  0  0  0
 17 20  2  0  0  0
 17 31  1  0  0  0
 18 26  2  0  0  0
 18 29  1  0  0  0
 19 30  1  0  0  0
 19 46  1  0  0  0
 20 32  1  0  0  0
 21 23  1  0  0  0
 21 47  1  0  0  0
 21 48  1  0  0  0
 28 49  1  0  0  0
 29 33  1  0  0  0
 30 50  1  0  0  0
 31 34  2  0  0  0
 31 51  1  0  0  0
 32 35  2  0  0  0
 32 52  1  0  0  0
 33 53  1  0  0  0
 33 54  1  0  0  0
 33 55  1  0  0  0
 34 35  1  0  0  0
 34 56  1  0  0  0
 35 57  1  0  0  0
M  END
> <s_m_entry_id>
41089

> <s_m_entry_name>
dock_pv.206

> <s_m_Source_Path>
/home/csk/Desktop/cluster/DUD-E-result/tysy

> <s_m_Source_File>
dock_pv.maegz

> <i_m_Source_File_Index>
206

> <chembl_id>
CHEMBL1791078

> <chembl_pref_name>
None

> <i_lp_mmshare_version>
53161

> <r_lp_tautomer_probability>
0.999138390123642

> <s_lp_Force_Field>
OPLS_2005

> <r_lp_Energy>
23.177927

> <b_lp_Chiralities_Consistent>
1

> <s_lp_Variant>
CHEMBL1952_lig57-3

> <s_i_glide_gridfile>
glide-grid_1syn

> <i_i_glide_lignum>
82

> <i_i_glide_rotatable_bonds>
11

> <r_i_docking_score>
-8.02511497338409

> <r_i_glide_ligand_efficiency>
-0.229288999239545

> <r_i_glide_ligand_efficiency_sa>
-0.750019519820474

> <r_i_glide_ligand_efficiency_ln>
-1.76169084448845

> <r_i_glide_gscore>
-8.02511497338409

> <r_i_glide_lipo>
-2.9610255842282

> <r_i_glide_hbond>
-0.290409091100998

> <r_i_glide_metal>
0

> <r_i_glide_rewards>
-1.47346927130845

> <r_i_glide_evdw>
-50.4109687805176

> <r_i_glide_ecoul>
-8.71723937988281

> <r_i_glide_erotb>
0.546572106955153

> <r_i_glide_esite>
-0.018648787693297

> <r_i_glide_emodel>
-83.6466635191454

> <r_i_glide_energy>
-59.1282081604004

> <r_i_glide_einternal>
7.32706212997437

> <i_i_glide_confnum>
8

> <i_i_glide_posenum>
13

> <r_i_glide_eff_state_penalty>
0

> <s_user_duplicate_titles>
CHEMBL1952_lig57

> <i_f3d_flags>
0

> <s_m_subgroup_title>
dock_pv

> <s_m_subgroupid>
dock_pv

> <b_m_subgroup_collapsed>
1

$$$$
CHEMBL1952_lig73
                    3D
 Schrodinger Suite 2021-1.
 28 30  0  0  1  0            999 V2000
   14.4064   18.1309   33.0236 C   0  0  0  0  0  0
   14.7838   17.1579   32.0204 C   0  0  0  0  0  0
   13.4314   19.0283   32.8096 N   0  0  0  0  0  0
   12.7835   19.0046   31.6467 C   0  0  0  0  0  0
   12.9898   18.1325   30.6443 N   0  0  0  0  0  0
   13.9809   17.2153   30.8345 C   0  0  0  0  0  0
   15.8331   16.1770   32.0978 C   0  0  0  0  0  0
   15.9985   15.2193   31.0351 C   0  0  0  0  0  0
   15.1201   15.2789   29.9091 C   0  0  0  0  0  0
   14.1733   16.2852   29.8090 C   0  0  0  0  0  0
   14.9912   18.1624   34.2507 O   0  0  0  0  0  0
   11.7920   19.9577   31.5214 N   0  0  0  0  0  0
   16.7556   16.1044   33.1911 C   0  0  0  0  0  0
   17.0309   14.2373   31.1507 C   0  0  0  0  0  0
   15.1306   14.2421   28.7912 C   0  0  0  0  0  0
   17.7482   15.1358   33.2562 C   0  0  0  0  0  0
   17.8811   14.2042   32.2452 C   0  0  0  0  0  0
   13.5391   16.3452   28.9369 H   0  0  0  0  0  0
   14.5428   18.8465   34.7570 H   0  0  0  0  0  0
   11.0915   19.8518   30.7917 H   0  0  0  0  0  0
   11.6476   20.5683   32.3099 H   0  0  0  0  0  0
   16.7551   16.8132   33.9911 H   0  0  0  0  0  0
   17.1959   13.4929   30.3910 H   0  0  0  0  0  0
   15.8843   13.4654   28.8571 H   0  0  0  0  0  0
   14.1691   13.7309   28.7840 H   0  0  0  0  0  0
   15.2458   14.7382   27.8276 H   0  0  0  0  0  0
   18.4315   15.1165   34.0926 H   0  0  0  0  0  0
   18.6602   13.4554   32.2998 H   0  0  0  0  0  0
  1  2  1  0  0  0
  1  3  2  0  0  0
  1 11  1  0  0  0
  2  6  2  0  0  0
  2  7  1  0  0  0
  3  4  1  0  0  0
  4  5  2  0  0  0
  4 12  1  0  0  0
  5  6  1  0  0  0
  6 10  1  0  0  0
  7  8  2  0  0  0
  7 13  1  0  0  0
  8  9  1  0  0  0
  8 14  1  0  0  0
  9 15  1  0  0  0
  9 10  2  0  0  0
 10 18  1  0  0  0
 11 19  1  0  0  0
 12 20  1  0  0  0
 12 21  1  0  0  0
 13 16  2  0  0  0
 13 22  1  0  0  0
 14 17  2  0  0  0
 14 23  1  0  0  0
 15 24  1  0  0  0
 15 25  1  0  0  0
 15 26  1  0  0  0
 16 17  1  0  0  0
 16 27  1  0  0  0
 17 28  1  0  0  0
M  END
> <s_m_entry_id>
41091

> <s_m_entry_name>
dock_pv.208

> <s_m_Source_Path>
/home/csk/Desktop/cluster/DUD-E-result/tysy

> <s_m_Source_File>
dock_pv.maegz

> <i_m_Source_File_Index>
208

> <chembl_id>
CHEMBL73527

> <chembl_pref_name>
None

> <i_lp_mmshare_version>
53161

> <r_lp_tautomer_probability>
1

> <s_lp_Force_Field>
OPLS_2005

> <r_lp_Energy>
15.730836

> <b_lp_Chiralities_Consistent>
1

> <s_lp_Variant>
CHEMBL1952_lig73-1

> <s_i_glide_gridfile>
glide-grid_1syn

> <i_i_glide_lignum>
110

> <i_i_glide_rotatable_bonds>
1

> <r_i_docking_score>
-8.02215406333855

> <r_i_glide_ligand_efficiency>
-0.471891415490503

> <r_i_glide_ligand_efficiency_sa>
-1.21336570829448

> <r_i_glide_ligand_efficiency_ln>
-2.09280135053733

> <r_i_glide_gscore>
-8.02215406333855

> <r_i_glide_lipo>
-3.16470058974874

> <r_i_glide_hbond>
-0.32

> <r_i_glide_metal>
0

> <r_i_glide_rewards>
-2.28667655088701

> <r_i_glide_evdw>
-33.8112869262695

> <r_i_glide_ecoul>
-3.73475050926208

> <r_i_glide_erotb>
0

> <r_i_glide_esite>
0

> <r_i_glide_emodel>
-54.8600307945501

> <r_i_glide_energy>
-37.5460374355316

> <r_i_glide_einternal>
0.919535934925079

> <i_i_glide_confnum>
1

> <i_i_glide_posenum>
369

> <r_i_glide_eff_state_penalty>
0

> <s_user_duplicate_titles>
CHEMBL1952_lig73

> <i_f3d_flags>
0

> <s_m_subgroup_title>
dock_pv

> <s_m_subgroupid>
dock_pv

> <b_m_subgroup_collapsed>
1

$$$$
CHEMBL1952_lig423
                    3D
 Schrodinger Suite 2021-1.
 58 61  0  0  1  0            999 V2000
   13.8400   13.3269   37.2997 N   0  0  0  0  0  0
   13.0927   12.2263   37.6230 C   0  0  0  0  0  0
   18.2273   13.2847   35.0222 N   0  0  0  0  0  0
   17.0952   12.6826   35.5909 C   0  0  0  0  0  0
   14.9817   12.8651   36.6915 C   0  0  0  0  0  0
   13.6499   11.0932   37.2913 N   0  0  0  0  0  0
   16.0982   13.4945   36.1541 C   0  0  0  0  0  0
   14.8317   11.4616   36.7012 C   0  0  0  0  0  0
   14.3470   15.6025   30.5185 C   0  0  0  0  0  0
   13.5022   16.6224   30.7541 N   0  0  0  0  0  0
   16.9728   11.2684   35.5972 C   0  0  0  0  0  0
   13.7515   18.0759   28.7798 C   0  0  0  0  0  0
   15.8383   10.6612   36.1533 C   0  0  0  0  0  0
   12.7640   17.4206   29.7654 C   0  0  2  0  0  0
   18.3731   14.6911   34.6194 C   0  0  0  0  0  0
   15.4289   15.4280   31.5610 C   0  0  0  0  0  0
   11.7920   20.2686   32.2773 C   0  0  0  0  0  0
   14.3297   14.9381   29.4822 O   0  0  0  0  0  0
   14.9336   17.8280   28.7910 O   0  0  0  0  0  0
   11.8846   12.3502   38.2286 N   0  0  0  0  0  0
   10.9920   20.1233   33.1910 O   0  0  0  0  0  0
   11.9447   18.5054   30.5056 C   0  0  0  0  0  0
   16.5919   14.7029   31.2532 C   0  0  0  0  0  0
   15.3024   16.0018   32.8361 C   0  0  0  0  0  0
   17.3972   15.0280   33.5043 C   0  0  0  0  0  0
   12.6353   19.1403   31.7323 C   0  0  0  0  0  0
   19.3907   12.4917   34.6000 C   0  0  0  0  0  0
   13.1224   18.9534   27.9420 O   0  0  0  0  0  0
   11.9657   21.4279   31.5910 O   0  0  0  0  0  0
   17.5704   14.4998   32.2228 C   0  0  0  0  0  0
   16.2823   15.8099   33.7935 C   0  0  0  0  0  0
   18.0868   10.3947   35.0303 C   0  0  0  0  0  0
   19.4330   11.0894   35.2213 C   0  0  0  0  0  0
   13.5546   14.2739   37.4884 H   0  0  0  0  0  0
   16.1947   14.5653   36.2010 H   0  0  0  0  0  0
   13.5767   17.0678   31.6525 H   0  0  0  0  0  0
   15.7373    9.5865   36.1573 H   0  0  0  0  0  0
   12.1001   16.7698   29.1956 H   0  0  0  0  0  0
   19.3805   14.9268   34.2711 H   0  0  0  0  0  0
   18.2034   15.3368   35.4820 H   0  0  0  0  0  0
   11.3196   11.5300   38.3879 H   0  0  0  0  0  0
   11.4368   13.2449   38.3522 H   0  0  0  0  0  0
   10.9922   18.0802   30.7910 H   0  0  0  0  0  0
   11.6369   19.3032   29.8285 H   0  0  0  0  0  0
   16.7286   14.2637   30.2740 H   0  0  0  0  0  0
   14.4341   16.5747   33.1252 H   0  0  0  0  0  0
   13.6279   19.5148   31.4873 H   0  0  0  0  0  0
   12.7575   18.4172   32.5378 H   0  0  0  0  0  0
   19.1577   12.2719   33.5574 H   0  0  0  0  0  0
   20.3391   13.0284   34.5561 H   0  0  0  0  0  0
   12.1765   19.0236   28.0950 H   0  0  0  0  0  0
   11.3954   22.1315   31.9114 H   0  0  0  0  0  0
   18.4390   13.8990   31.9892 H   0  0  0  0  0  0
   16.1363   16.2278   34.7767 H   0  0  0  0  0  0
   17.9162   10.2015   33.9753 H   0  0  0  0  0  0
   18.1078    9.4280   35.5181 H   0  0  0  0  0  0
   20.2434   10.5015   34.7912 H   0  0  0  0  0  0
   19.6721   11.1627   36.2784 H   0  0  0  0  0  0
  1  2  1  0  0  0
  1  5  1  0  0  0
  1 34  1  0  0  0
  2  6  2  0  0  0
  2 20  1  0  0  0
  3  4  1  0  0  0
  3 15  1  0  0  0
  3 27  1  0  0  0
  4  7  2  0  0  0
  4 11  1  0  0  0
  5  7  1  0  0  0
  5  8  2  0  0  0
  6  8  1  0  0  0
  7 35  1  0  0  0
  8 13  1  0  0  0
  9 16  1  0  0  0
  9 10  1  0  0  0
  9 18  2  0  0  0
 10 14  1  0  0  0
 10 36  1  0  0  0
 11 13  2  0  0  0
 11 32  1  0  0  0
 12 14  1  0  0  0
 12 19  2  0  0  0
 12 28  1  0  0  0
 13 37  1  0  0  0
 14 22  1  0  0  0
 14 38  1  0  0  0
 15 25  1  0  0  0
 15 39  1  0  0  0
 15 40  1  0  0  0
 16 24  2  0  0  0
 16 23  1  0  0  0
 17 26  1  0  0  0
 17 21  2  0  0  0
 17 29  1  0  0  0
 20 41  1  0  0  0
 20 42  1  0  0  0
 22 26  1  0  0  0
 22 43  1  0  0  0
 22 44  1  0  0  0
 23 30  2  0  0  0
 23 45  1  0  0  0
 24 31  1  0  0  0
 24 46  1  0  0  0
 25 30  1  0  0  0
 25 31  2  0  0  0
 26 47  1  0  0  0
 26 48  1  0  0  0
 27 33  1  0  0  0
 27 49  1  0  0  0
 27 50  1  0  0  0
 28 51  1  0  0  0
 29 52  1  0  0  0
 30 53  1  0  0  0
 31 54  1  0  0  0
 32 33  1  0  0  0
 32 55  1  0  0  0
 32 56  1  0  0  0
 33 57  1  0  0  0
 33 58  1  0  0  0
M  END
> <s_m_entry_id>
41092

> <s_m_entry_name>
dock_pv.209

> <s_m_Source_Path>
/home/csk/Desktop/cluster/DUD-E-result/tysy

> <s_m_Source_File>
dock_pv.maegz

> <i_m_Source_File_Index>
209

> <chembl_id>
CHEMBL169411

> <chembl_pref_name>
None

> <i_lp_mmshare_version>
53161

> <r_lp_tautomer_probability>
1

> <s_lp_Force_Field>
OPLS_2005

> <r_lp_Energy>
13.688151

> <b_lp_Chiralities_Consistent>
1

> <s_lp_Variant>
CHEMBL1952_lig423-2

> <s_i_glide_gridfile>
glide-grid_1syn

> <i_i_glide_lignum>
821

> <i_i_glide_rotatable_bonds>
11

> <r_i_docking_score>
-8.02199549979804

> <r_i_glide_ligand_efficiency>
-0.243090772721153

> <r_i_glide_ligand_efficiency_sa>
-0.779721997899543

> <r_i_glide_ligand_efficiency_ln>
-1.78405026348533

> <r_i_glide_gscore>
-8.02199549979804

> <r_i_glide_lipo>
-3.56611967596444

> <r_i_glide_hbond>
-0.309481088369314

> <r_i_glide_metal>
0

> <r_i_glide_rewards>
-1.82010015135713

> <r_i_glide_evdw>
-45.763053894043

> <r_i_glide_ecoul>
-6.14342164993286

> <r_i_glide_erotb>
0.885622991838182

> <r_i_glide_esite>
-0.00225163375326637

> <r_i_glide_emodel>
-74.5622672155425

> <r_i_glide_energy>
-51.9064755439758

> <r_i_glide_einternal>
7.50456190109253

> <i_i_glide_confnum>
81

> <i_i_glide_posenum>
18

> <r_i_glide_eff_state_penalty>
0

> <s_user_duplicate_titles>
CHEMBL1952_lig423,283152

> <i_f3d_flags>
0

> <s_m_subgroup_title>
dock_pv

> <s_m_subgroupid>
dock_pv

> <b_m_subgroup_collapsed>
1

$$$$
CHEMBL1952_lig466
                    3D
 Schrodinger Suite 2021-1.
 41 44  0  0  1  0            999 V2000
   18.3442   15.0973   35.1910 O   0  0  0  0  0  0
   18.4446   13.7311   34.6764 S   0  0  0  0  0  0
   19.7220   13.0280   34.7601 O   0  0  0  0  0  0
   15.8240   15.4562   30.4882 C   0  0  0  0  0  0
   16.7970   14.6258   31.0825 C   0  0  0  0  0  0
   13.3951   18.2348   31.6087 C   0  0  0  0  0  0
   14.5189   17.3627   33.5637 C   0  0  0  0  0  0
   14.1276   17.2571   30.7415 C   0  0  0  0  0  0
   14.5842   17.4259   34.7906 O   0  0  0  0  0  0
   15.5435   15.4137   29.1137 C   0  0  0  0  0  0
   12.5857   19.0703   31.2115 O   0  0  0  0  0  0
   15.0964   16.3693   31.3013 C   0  0  0  0  0  0
   13.6478   18.1990   32.9434 O   0  0  0  0  0  0
   17.0192   14.6738   32.4545 C   0  0  0  0  0  0
   13.8998   17.1873   29.3685 C   0  0  0  0  0  0
   16.2617   15.5594   33.2408 C   0  0  0  0  0  0
   14.5917   16.2707   28.5841 C   0  0  0  0  0  0
   15.3124   16.4239   32.7019 C   0  0  0  0  0  0
   17.9949   13.8049   32.9739 N   0  0  0  0  0  0
   17.1914   12.7017   35.4695 C   0  0  0  0  0  0
   16.0546   13.3294   35.9912 C   0  0  0  0  0  0
   15.0434   12.5878   36.5967 C   0  0  0  0  0  0
   15.1502   11.1979   36.6985 C   0  0  0  0  0  0
   16.2909   10.5687   36.1928 C   0  0  0  0  0  0
   17.3184   11.3012   35.5910 C   0  0  0  0  0  0
   18.5069   10.5635   35.1350 N   0  3  0  0  0  0
   18.5920   10.2878   33.9453 O   0  0  0  0  0  0
   19.3183   10.2281   35.9902 O   0  5  0  0  0  0
   14.0659   10.3686   37.3830 C   0  0  0  0  0  0
   13.3321    9.7584   36.4532 F   0  0  0  0  0  0
   13.2602   11.1195   38.1369 F   0  0  0  0  0  0
   14.6195    9.4419   38.1681 F   0  0  0  0  0  0
   17.3556   13.9405   30.4592 H   0  0  0  0  0  0
   16.0648   14.7133   28.4781 H   0  0  0  0  0  0
   13.1740   17.8373   28.8966 H   0  0  0  0  0  0
   16.3755   15.6109   34.3034 H   0  0  0  0  0  0
   14.3622   16.2282   27.5320 H   0  0  0  0  0  0
   18.4804   13.1696   32.3528 H   0  0  0  0  0  0
   15.9486   14.4025   35.9601 H   0  0  0  0  0  0
   14.1814   13.1059   36.9920 H   0  0  0  0  0  0
   16.3880    9.4955   36.2747 H   0  0  0  0  0  0
  1  2  2  0  0  0
  2  3  2  0  0  0
  2 19  1  0  0  0
  2 20  1  0  0  0
  4 10  2  0  0  0
  4 12  1  0  0  0
  4  5  1  0  0  0
  5 14  2  0  0  0
  5 33  1  0  0  0
  6  8  1  0  0  0
  6 11  2  0  0  0
  6 13  1  0  0  0
  7 18  1  0  0  0
  7 13  1  0  0  0
  7  9  2  0  0  0
  8 15  1  0  0  0
  8 12  2  0  0  0
 10 17  1  0  0  0
 10 34  1  0  0  0
 12 18  1  0  0  0
 14 16  1  0  0  0
 14 19  1  0  0  0
 15 17  2  0  0  0
 15 35  1  0  0  0
 16 18  2  0  0  0
 16 36  1  0  0  0
 17 37  1  0  0  0
 19 38  1  0  0  0
 20 21  2  0  0  0
 20 25  1  0  0  0
 21 22  1  0  0  0
 21 39  1  0  0  0
 22 23  2  0  0  0
 22 40  1  0  0  0
 23 24  1  0  0  0
 23 29  1  0  0  0
 24 25  2  0  0  0
 24 41  1  0  0  0
 25 26  1  0  0  0
 26 27  2  0  0  0
 26 28  1  0  0  0
 29 30  1  0  0  0
 29 31  1  0  0  0
 29 32  1  0  0  0
M  CHG  2  26   1  28  -1
M  END
> <s_m_entry_id>
41094

> <s_m_entry_name>
dock_pv.211

> <s_m_Source_Path>
/home/csk/Desktop/cluster/DUD-E-result/tysy

> <s_m_Source_File>
dock_pv.maegz

> <i_m_Source_File_Index>
211

> <chembl_id>
CHEMBL2323392

> <chembl_pref_name>
None

> <i_lp_mmshare_version>
53161

> <r_lp_tautomer_probability>
1

> <s_lp_Force_Field>
OPLS_2005

> <r_lp_Energy>
37.005373

> <b_lp_Chiralities_Consistent>
1

> <s_lp_Variant>
CHEMBL1952_lig466-1

> <s_i_glide_gridfile>
glide-grid_1syn

> <i_i_glide_lignum>
896

> <i_i_glide_rotatable_bonds>
5

> <r_i_docking_score>
-8.0114563957089

> <r_i_glide_ligand_efficiency>
-0.250358012365903

> <r_i_glide_ligand_efficiency_sa>
-0.794837143478372

> <r_i_glide_ligand_efficiency_ln>
-1.79398347105261

> <r_i_glide_gscore>
-8.0114563957089

> <r_i_glide_lipo>
-3.97547103422196

> <r_i_glide_hbond>
0

> <r_i_glide_metal>
0

> <r_i_glide_rewards>
-1.52669758206982

> <r_i_glide_evdw>
-51.1934471130371

> <r_i_glide_ecoul>
-0.421646356582642

> <r_i_glide_erotb>
0.278290676592678

> <r_i_glide_esite>
-0.164659146870548

> <r_i_glide_emodel>
-73.3542476587984

> <r_i_glide_energy>
-51.6150934696198

> <r_i_glide_einternal>
1.57055652141571

> <i_i_glide_confnum>
4

> <i_i_glide_posenum>
92

> <r_i_glide_eff_state_penalty>
0

> <s_user_duplicate_titles>
CHEMBL1952_lig466

> <i_f3d_flags>
0

> <s_m_subgroup_title>
dock_pv

> <s_m_subgroupid>
dock_pv

> <b_m_subgroup_collapsed>
1

$$$$
CHEMBL1952_lig343
                    3D
 Schrodinger Suite 2021-1.
 55 58  0  0  1  0            999 V2000
   14.7502   11.2728   36.3739 C   0  0  0  0  0  0
   13.8950   17.8190   32.8834 C   0  0  0  0  0  0
   14.9914   16.8131   32.6475 C   0  0  0  0  0  0
   13.9700   12.2348   37.0560 C   0  0  0  0  0  0
   13.3094   18.2287   31.7326 N   0  0  0  0  0  0
   14.4816   16.9005   30.2521 N   0  0  0  0  0  0
   12.3984   11.9116   37.9796 S   0  0  1  0  0  0
   14.4462    9.7655   36.3929 C   0  0  0  0  0  0
   15.2097   16.3781   31.3363 C   0  0  0  0  0  0
   13.5843   17.7922   30.4667 C   0  0  0  0  0  0
   15.8653   11.7186   35.6398 C   0  0  0  0  0  0
   16.2713   13.0624   35.5925 C   0  0  0  0  0  0
   17.4426   13.4865   34.8837 N   0  0  0  0  0  0
   14.3466   13.5754   37.0036 C   0  0  0  0  0  0
   18.9307   11.5201   34.9161 C   0  0  0  0  0  0
   19.3993   10.6213   35.5910 C   0  0  0  0  0  0
   15.7545   16.3217   33.7078 C   0  0  0  0  0  0
   11.9977   10.4463   37.8143 O   0  0  0  0  0  0
   13.5302   18.2270   33.9787 O   0  0  0  0  0  0
   12.9958   12.0886   39.6980 C   0  0  0  0  0  0
   17.6564   14.9014   34.5936 C   0  0  0  0  0  0
   16.7706   15.3984   33.4522 C   0  0  0  0  0  0
   15.4773   13.9769   36.3015 C   0  0  0  0  0  0
   16.2004   15.4329   31.0841 C   0  0  0  0  0  0
   15.3923    9.0421   35.7891 F   0  0  0  0  0  0
   14.3779    9.3199   37.6483 F   0  0  0  0  0  0
   13.3041    9.5157   35.7534 F   0  0  0  0  0  0
   18.3288   12.5982   34.1217 C   0  0  0  0  0  0
   16.9903   14.9594   32.1360 C   0  0  0  0  0  0
   12.8239   18.4222   29.3228 C   0  0  0  0  0  0
   13.0149   13.3532   40.2871 C   0  0  0  0  0  0
   13.3885   10.9603   40.4183 C   0  0  0  0  0  0
   13.7881   11.0979   41.7456 C   0  0  0  0  0  0
   13.4177   13.4876   41.6130 C   0  0  0  0  0  0
   13.8027   12.3605   42.3370 C   0  0  0  0  0  0
   16.4261   10.9847   35.0893 H   0  0  0  0  0  0
   13.7625   14.3280   37.5106 H   0  0  0  0  0  0
   19.7924    9.8289   36.1820 H   0  0  0  0  0  0
   15.5695   16.6664   34.7158 H   0  0  0  0  0  0
   12.5997   18.9321   31.8632 H   0  0  0  0  0  0
   18.6929   15.0967   34.3145 H   0  0  0  0  0  0
   17.5266   15.4284   35.5280 H   0  0  0  0  0  0
   15.7093   15.0277   36.3371 H   0  0  0  0  0  0
   16.3726   15.0943   30.0729 H   0  0  0  0  0  0
   17.7924   12.1999   33.2663 H   0  0  0  0  0  0
   19.1799   13.1349   33.6967 H   0  0  0  0  0  0
   17.7795   14.2542   31.9207 H   0  0  0  0  0  0
   13.2011   19.4266   29.1196 H   0  0  0  0  0  0
   12.9223   17.8392   28.4041 H   0  0  0  0  0  0
   11.7580   18.5040   29.5491 H   0  0  0  0  0  0
   12.7052   14.2213   39.7254 H   0  0  0  0  0  0
   13.3647    9.9839   39.9558 H   0  0  0  0  0  0
   14.0881   10.2315   42.3134 H   0  0  0  0  0  0
   13.4355   14.4608   42.0762 H   0  0  0  0  0  0
   14.1295   12.4639   43.3630 H   0  0  0  0  0  0
  1  4  2  0  0  0
  1  8  1  0  0  0
  1 11  1  0  0  0
  2 19  2  0  0  0
  2  3  1  0  0  0
  2  5  1  0  0  0
  3 17  1  0  0  0
  3  9  2  0  0  0
  4  7  1  0  0  0
  4 14  1  0  0  0
  5 10  1  0  0  0
  5 40  1  0  0  0
  6  9  1  0  0  0
  6 10  2  0  0  0
  7 18  2  0  0  0
  7 20  1  0  0  0
  8 25  1  0  0  0
  8 26  1  0  0  0
  8 27  1  0  0  0
  9 24  1  0  0  0
 10 30  1  0  0  0
 11 12  2  0  0  0
 11 36  1  0  0  0
 12 13  1  0  0  0
 12 23  1  0  0  0
 13 21  1  0  0  0
 13 28  1  0  0  0
 14 23  2  0  0  0
 14 37  1  0  0  0
 15 28  1  0  0  0
 15 16  3  0  0  0
 16 38  1  0  0  0
 17 39  1  0  0  0
 17 22  2  0  0  0
 20 31  2  0  0  0
 20 32  1  0  0  0
 21 41  1  0  0  0
 21 42  1  0  0  0
 21 22  1  0  0  0
 22 29  1  0  0  0
 23 43  1  0  0  0
 24 29  2  0  0  0
 24 44  1  0  0  0
 28 45  1  0  0  0
 28 46  1  0  0  0
 29 47  1  0  0  0
 30 48  1  0  0  0
 30 49  1  0  0  0
 30 50  1  0  0  0
 31 34  1  0  0  0
 31 51  1  0  0  0
 32 33  2  0  0  0
 32 52  1  0  0  0
 33 35  1  0  0  0
 33 53  1  0  0  0
 34 35  2  0  0  0
 34 54  1  0  0  0
 35 55  1  0  0  0
M  END
> <s_m_entry_id>
41095

> <s_m_entry_name>
dock_pv.212

> <s_m_Source_Path>
/home/csk/Desktop/cluster/DUD-E-result/tysy

> <s_m_Source_File>
dock_pv.maegz

> <i_m_Source_File_Index>
212

> <chembl_id>
CHEMBL161450

> <chembl_pref_name>
None

> <i_lp_mmshare_version>
53161

> <r_lp_tautomer_probability>
0.883938

> <s_lp_Force_Field>
OPLS_2005

> <r_lp_Energy>
28.293514

> <b_lp_Chiralities_Consistent>
1

> <s_lp_Variant>
CHEMBL1952_lig343-2

> <s_i_glide_gridfile>
glide-grid_1syn

> <i_i_glide_lignum>
628

> <i_i_glide_rotatable_bonds>
8

> <r_i_docking_score>
-8.00635849410499

> <r_i_glide_ligand_efficiency>
-0.228753099831571

> <r_i_glide_ligand_efficiency_sa>
-0.748266557323477

> <r_i_glide_ligand_efficiency_ln>
-1.75757338100906

> <r_i_glide_gscore>
-8.00635849410499

> <r_i_glide_lipo>
-3.97299967368129

> <r_i_glide_hbond>
0

> <r_i_glide_metal>
0

> <r_i_glide_rewards>
-1.09041705415774

> <r_i_glide_evdw>
-60.2514038085938

> <r_i_glide_ecoul>
-3.41034889221191

> <r_i_glide_erotb>
0.581180757995511

> <r_i_glide_esite>
0

> <r_i_glide_emodel>
-91.6458750840748

> <r_i_glide_energy>
-63.6617527008057

> <r_i_glide_einternal>
3.92934083938599

> <i_i_glide_confnum>
63

> <i_i_glide_posenum>
370

> <r_i_glide_eff_state_penalty>
0

> <s_user_duplicate_titles>
CHEMBL1952_lig343,266929

> <i_f3d_flags>
0

> <s_m_subgroup_title>
dock_pv

> <s_m_subgroupid>
dock_pv

> <b_m_subgroup_collapsed>
1

$$$$
CHEMBL1952_lig243
                    3D
 Schrodinger Suite 2021-1.
 56 58  0  0  1  0            999 V2000
   16.3939   11.1209   35.9974 C   0  0  0  0  0  0
   15.4390   10.3406   36.7448 C   0  0  0  0  0  0
   15.7920    9.4280   37.4939 O   0  0  0  0  0  0
   14.1582   10.6951   36.5424 N   0  0  0  0  0  0
   12.9775   10.0826   37.1559 C   0  0  1  0  0  0
   12.3339   11.0989   38.1430 C   0  0  0  0  0  0
   12.0077    9.5969   36.0532 C   0  0  0  0  0  0
   12.5920    8.6280   35.2886 O   0  0  0  0  0  0
   10.8736   10.0035   35.9169 O   0  0  0  0  0  0
   13.2336   11.4662   39.3453 C   0  0  0  0  0  0
   12.6470   12.5940   40.1928 C   0  0  0  0  0  0
   12.9919   13.8280   39.7253 O   0  0  0  0  0  0
   11.9522   12.4105   41.1910 O   0  0  0  0  0  0
   13.4186   18.6281   33.0396 N   0  0  0  0  0  0
   13.0808   18.7116   31.7180 C   0  0  0  0  0  0
   13.6107   17.9326   30.8438 N   0  0  0  0  0  0
   14.3125   17.7848   33.5973 C   0  0  0  0  0  0
   14.5787   17.8256   34.7910 O   0  0  0  0  0  0
   14.9375   16.8558   32.5912 C   0  0  0  0  0  0
   14.5734   16.9927   31.2501 C   0  0  0  0  0  0
   15.1717   16.1761   30.2922 C   0  0  0  0  0  0
   16.1261   15.2289   30.6814 C   0  0  0  0  0  0
   16.4761   15.0788   32.0316 C   0  0  0  0  0  0
   15.8686   15.9027   32.9896 C   0  0  0  0  0  0
   17.4624   13.9731   32.4231 C   0  0  0  0  0  0
   17.8130   13.9340   33.8496 N   0  0  0  0  0  0
   12.0926   19.7796   31.3261 C   0  0  0  0  0  0
   18.6392   15.0318   34.3383 C   0  0  0  0  0  0
   20.0444   14.6280   34.3882 C   0  0  0  0  0  0
   21.1951   14.2280   34.3910 C   0  0  0  0  0  0
   17.5430   12.8411   34.6338 C   0  0  0  0  0  0
   16.1043   12.7971   35.5910 S   0  0  0  0  0  0
   17.6714   10.7359   35.5910 C   0  0  0  0  0  0
   18.3031   11.6915   34.7910 C   0  0  0  0  0  0
   13.9728   11.4282   35.8746 H   0  0  0  0  0  0
   13.2631    9.1916   37.7189 H   0  0  0  0  0  0
   12.0539   12.0074   37.6048 H   0  0  0  0  0  0
   11.4016   10.6855   38.5337 H   0  0  0  0  0  0
   11.9565    8.2559   34.6618 H   0  0  0  0  0  0
   13.3745   10.5888   39.9774 H   0  0  0  0  0  0
   14.2286   11.7639   39.0160 H   0  0  0  0  0  0
   13.5257   13.7953   38.9278 H   0  0  0  0  0  0
   13.0290   19.2975   33.6944 H   0  0  0  0  0  0
   14.8932   16.2781   29.2544 H   0  0  0  0  0  0
   16.5767   14.5921   29.9324 H   0  0  0  0  0  0
   16.0997   15.8025   34.0408 H   0  0  0  0  0  0
   17.0171   13.0217   32.1325 H   0  0  0  0  0  0
   18.3772   14.0508   31.8317 H   0  0  0  0  0  0
   11.7920   19.6890   30.2813 H   0  0  0  0  0  0
   11.1926   19.7167   31.9382 H   0  0  0  0  0  0
   12.5223   20.7711   31.4662 H   0  0  0  0  0  0
   18.5760   15.9060   33.6889 H   0  0  0  0  0  0
   18.3197   15.3409   35.3340 H   0  0  0  0  0  0
   22.1847   13.8280   34.3767 H   0  0  0  0  0  0
   18.1155    9.7799   35.8099 H   0  0  0  0  0  0
   19.2669   11.5449   34.3221 H   0  0  0  0  0  0
  1  2  1  0  0  0
  1 32  1  0  0  0
  1 33  2  0  0  0
  2  3  2  0  0  0
  2  4  1  0  0  0
  4  5  1  0  0  0
  4 35  1  0  0  0
  5  6  1  0  0  0
  5  7  1  0  0  0
  5 36  1  0  0  0
  6 10  1  0  0  0
  6 37  1  0  0  0
  6 38  1  0  0  0
  7  9  2  0  0  0
  7  8  1  0  0  0
  8 39  1  0  0  0
 10 11  1  0  0  0
 10 40  1  0  0  0
 10 41  1  0  0  0
 11 12  1  0  0  0
 11 13  2  0  0  0
 12 42  1  0  0  0
 14 15  1  0  0  0
 14 17  1  0  0  0
 14 43  1  0  0  0
 15 27  1  0  0  0
 15 16  2  0  0  0
 16 20  1  0  0  0
 17 19  1  0  0  0
 17 18  2  0  0  0
 19 20  2  0  0  0
 19 24  1  0  0  0
 20 21  1  0  0  0
 21 22  2  0  0  0
 21 44  1  0  0  0
 22 23  1  0  0  0
 22 45  1  0  0  0
 23 24  2  0  0  0
 23 25  1  0  0  0
 24 46  1  0  0  0
 25 26  1  0  0  0
 25 47  1  0  0  0
 25 48  1  0  0  0
 26 28  1  0  0  0
 26 31  1  0  0  0
 27 49  1  0  0  0
 27 50  1  0  0  0
 27 51  1  0  0  0
 28 29  1  0  0  0
 28 52  1  0  0  0
 28 53  1  0  0  0
 29 30  3  0  0  0
 30 54  1  0  0  0
 31 32  1  0  0  0
 31 34  2  0  0  0
 33 34  1  0  0  0
 33 55  1  0  0  0
 34 56  1  0  0  0
M  END
> <s_m_entry_id>
41096

> <s_m_entry_name>
dock_pv.213

> <s_m_Source_Path>
/home/csk/Desktop/cluster/DUD-E-result/tysy

> <s_m_Source_File>
dock_pv.maegz

> <i_m_Source_File_Index>
213

> <chembl_id>
CHEMBL1095264

> <chembl_pref_name>
None

> <i_lp_mmshare_version>
53161

> <r_lp_tautomer_probability>
0.883938

> <s_lp_Force_Field>
OPLS_2005

> <r_lp_Energy>
17.628686

> <b_lp_Chiralities_Consistent>
1

> <s_lp_Variant>
CHEMBL1952_lig243-1

> <s_i_glide_gridfile>
glide-grid_1syn

> <i_i_glide_lignum>
482

> <i_i_glide_rotatable_bonds>
14

> <r_i_docking_score>
-8.00600414727843

> <r_i_glide_ligand_efficiency>
-0.235470710214072

> <r_i_glide_ligand_efficiency_sa>
-0.762833690768021

> <r_i_glide_ligand_efficiency_ln>
-1.76875087694376

> <r_i_glide_gscore>
-8.00600414727843

> <r_i_glide_lipo>
-3.12636973734755

> <r_i_glide_hbond>
-0.416140915423162

> <r_i_glide_metal>
0

> <r_i_glide_rewards>
-0.862196993904238

> <r_i_glide_evdw>
-50.1786880493164

> <r_i_glide_ecoul>
-14.0990266799927

> <r_i_glide_erotb>
1.04601439079423

> <r_i_glide_esite>
-0.0235224869329936

> <r_i_glide_emodel>
-90.1150194338234

> <r_i_glide_energy>
-64.2777147293091

> <r_i_glide_einternal>
10.7492809295654

> <i_i_glide_confnum>
57

> <i_i_glide_posenum>
370

> <r_i_glide_eff_state_penalty>
0

> <s_user_duplicate_titles>
CHEMBL1952_lig243,624881

> <i_f3d_flags>
0

> <s_m_subgroup_title>
dock_pv

> <s_m_subgroupid>
dock_pv

> <b_m_subgroup_collapsed>
1

$$$$
CHEMBL1952_lig348
                    3D
 Schrodinger Suite 2021-1.
 59 62  0  0  1  0            999 V2000
   16.2339   16.5349   33.3053 S   0  0  0  0  0  0
   15.9818   14.3525   35.1809 C   0  0  0  0  0  0
   15.4124   15.4740   34.5192 C   0  0  0  0  0  0
   14.4516    7.9947   36.2892 C   0  0  0  0  0  0
   14.1048    8.8878   37.4755 C   0  0  0  0  0  0
   14.5925    6.6322   36.5863 N   0  0  0  0  0  0
   14.0391    6.9221   38.8541 N   0  0  0  0  0  0
   17.3907   13.8036   34.8900 C   0  0  0  0  0  0
   13.8912    8.3048   38.7306 C   0  0  0  0  0  0
   14.3996    6.1654   37.7591 C   0  0  0  0  0  0
   15.6444   16.0663   31.6562 C   0  0  0  0  0  0
   15.1809   13.6383   36.0847 C   0  0  0  0  0  0
   13.8285   13.9346   36.2762 C   0  0  0  0  0  0
   13.0289   13.1065   37.1005 N   0  0  0  0  0  0
   15.7921   17.9044   33.5910 O   0  0  0  0  0  0
   17.6634   16.2282   33.3226 O   0  0  0  0  0  0
   14.0910   15.8280   34.7910 C   0  0  0  0  0  0
   10.6213   13.2593   37.7048 C   0  0  0  0  0  0
    9.7431   13.5637   38.4963 C   0  0  0  0  0  0
   13.9962   10.2792   37.3320 C   0  0  0  0  0  0
   14.5916    8.4850   35.1697 O   0  0  0  0  0  0
   13.5935   12.5951   38.3587 C   0  0  0  0  0  0
   13.6687   11.0719   38.4437 C   0  0  0  0  0  0
   13.2914   15.0275   35.5910 C   0  0  0  0  0  0
   14.5978   16.7124   30.9555 C   0  0  0  0  0  0
   13.5578    9.0835   39.8309 C   0  0  0  0  0  0
   17.4948   13.4717   33.6061 F   0  0  0  0  0  0
   18.3220   14.6972   35.1910 F   0  0  0  0  0  0
   17.6705   12.7022   35.5913 F   0  0  0  0  0  0
   11.6348   12.8194   36.7286 C   0  0  0  0  0  0
   13.4492   10.4651   39.6856 C   0  0  0  0  0  0
   14.5624    4.6820   37.9911 C   0  0  0  0  0  0
   16.3422   15.0290   31.0218 C   0  0  0  0  0  0
   13.7949   17.8760   31.5193 C   0  0  0  0  0  0
   14.2869   16.2975   29.6545 C   0  0  0  0  0  0
   16.0167   14.6279   29.7312 C   0  0  0  0  0  0
   14.9920   15.2638   29.0444 C   0  0  0  0  0  0
   15.5910   12.7744   36.5846 H   0  0  0  0  0  0
   13.6455   16.6971   34.3366 H   0  0  0  0  0  0
    8.9599   13.8347   39.1675 H   0  0  0  0  0  0
   14.1667   10.7485   36.3712 H   0  0  0  0  0  0
   13.8750    6.4811   39.7427 H   0  0  0  0  0  0
   12.9932   12.9850   39.1818 H   0  0  0  0  0  0
   14.5923   12.9915   38.5411 H   0  0  0  0  0  0
   12.2550   15.2965   35.7254 H   0  0  0  0  0  0
   13.3896    8.6239   40.7911 H   0  0  0  0  0  0
   11.3707   13.2274   35.7522 H   0  0  0  0  0  0
   11.5221   11.7389   36.6306 H   0  0  0  0  0  0
   13.2033   11.0675   40.5478 H   0  0  0  0  0  0
   15.1350    4.2120   37.1909 H   0  0  0  0  0  0
   15.0854    4.4792   38.9250 H   0  0  0  0  0  0
   13.5898    4.1918   38.0277 H   0  0  0  0  0  0
   17.1658   14.5347   31.5138 H   0  0  0  0  0  0
   12.9865   18.1849   30.8552 H   0  0  0  0  0  0
   13.3382   17.6191   32.4694 H   0  0  0  0  0  0
   14.4377   18.7411   31.6748 H   0  0  0  0  0  0
   13.5018   16.7896   29.0986 H   0  0  0  0  0  0
   16.5690   13.8280   29.2601 H   0  0  0  0  0  0
   14.7479   14.9586   28.0370 H   0  0  0  0  0  0
  1  3  1  0  0  0
  1 11  1  0  0  0
  1 15  2  0  0  0
  1 16  2  0  0  0
  2  3  2  0  0  0
  2  8  1  0  0  0
  2 12  1  0  0  0
  3 17  1  0  0  0
  4 21  2  0  0  0
  4  5  1  0  0  0
  4  6  1  0  0  0
  5 20  1  0  0  0
  5  9  2  0  0  0
  6 10  2  0  0  0
  7  9  1  0  0  0
  7 42  1  0  0  0
  7 10  1  0  0  0
  8 27  1  0  0  0
  8 28  1  0  0  0
  8 29  1  0  0  0
  9 26  1  0  0  0
 10 32  1  0  0  0
 11 25  1  0  0  0
 11 33  2  0  0  0
 12 13  2  0  0  0
 12 38  1  0  0  0
 13 24  1  0  0  0
 13 14  1  0  0  0
 14 22  1  0  0  0
 14 30  1  0  0  0
 17 24  2  0  0  0
 17 39  1  0  0  0
 18 30  1  0  0  0
 18 19  3  0  0  0
 19 40  1  0  0  0
 20 41  1  0  0  0
 20 23  2  0  0  0
 22 43  1  0  0  0
 22 44  1  0  0  0
 22 23  1  0  0  0
 23 31  1  0  0  0
 24 45  1  0  0  0
 25 34  1  0  0  0
 25 35  2  0  0  0
 26 31  2  0  0  0
 26 46  1  0  0  0
 30 47  1  0  0  0
 30 48  1  0  0  0
 31 49  1  0  0  0
 32 50  1  0  0  0
 32 51  1  0  0  0
 32 52  1  0  0  0
 33 36  1  0  0  0
 33 53  1  0  0  0
 34 54  1  0  0  0
 34 55  1  0  0  0
 34 56  1  0  0  0
 35 37  1  0  0  0
 35 57  1  0  0  0
 36 37  2  0  0  0
 36 58  1  0  0  0
 37 59  1  0  0  0
M  END
> <s_m_entry_id>
41097

> <s_m_entry_name>
dock_pv.214

> <s_m_Source_Path>
/home/csk/Desktop/cluster/DUD-E-result/tysy

> <s_m_Source_File>
dock_pv.maegz

> <i_m_Source_File_Index>
214

> <chembl_id>
CHEMBL159144

> <chembl_pref_name>
None

> <i_lp_mmshare_version>
53161

> <r_lp_tautomer_probability>
0.116051

> <s_lp_Force_Field>
OPLS_2005

> <r_lp_Energy>
25.3306

> <b_lp_Chiralities_Consistent>
1

> <s_lp_Variant>
CHEMBL1952_lig348-2

> <s_i_glide_gridfile>
glide-grid_1syn

> <i_i_glide_lignum>
640

> <i_i_glide_rotatable_bonds>
8

> <r_i_docking_score>
-8.004547529181

> <r_i_glide_ligand_efficiency>
-0.216339122410297

> <r_i_glide_ligand_efficiency_sa>
-0.72088995019381

> <r_i_glide_ligand_efficiency_ln>
-1.73599870586085

> <r_i_glide_gscore>
-8.004547529181

> <r_i_glide_lipo>
-4.12173824314484

> <r_i_glide_hbond>
0

> <r_i_glide_metal>
0

> <r_i_glide_rewards>
-1.19329936514943

> <r_i_glide_evdw>
-53.2827606201172

> <r_i_glide_ecoul>
-3.41144967079163

> <r_i_glide_erotb>
0.521673246119446

> <r_i_glide_esite>
-0.0353276853815651

> <r_i_glide_emodel>
-77.1903027385623

> <r_i_glide_energy>
-56.6942102909088

> <r_i_glide_einternal>
6.37739706039429

> <i_i_glide_confnum>
85

> <i_i_glide_posenum>
59

> <r_i_glide_eff_state_penalty>
0

> <s_user_duplicate_titles>
CHEMBL1952_lig348,CHEMBL1952_lig348,266893

> <i_f3d_flags>
0

> <s_m_subgroup_title>
dock_pv

> <s_m_subgroupid>
dock_pv

> <b_m_subgroup_collapsed>
1

$$$$
CHEMBL1952_lig111
                    3D
 Schrodinger Suite 2021-1.
 52 54  0  0  1  0            999 V2000
   13.8892   17.0727   29.9849 N   0  0  0  0  0  0
   13.3234   18.4304   31.8934 N   0  0  0  0  0  0
   14.8648   16.4722   30.7124 C   0  0  0  0  0  0
   14.2959   17.8434   32.6226 C   0  0  0  0  0  0
   15.1250   16.8225   32.0719 C   0  0  0  0  0  0
   13.1770   18.0246   30.6170 C   0  0  0  0  0  0
   15.4053   10.6463   37.1412 C   0  0  0  0  0  0
   15.5865   15.5308   30.0528 N   0  0  0  0  0  0
   14.3289   11.0943   37.8157 N   0  0  0  0  0  0
   14.1214    9.8525   40.0169 C   0  0  0  0  0  0
   13.4357   10.3493   38.7150 C   0  0  1  0  0  0
   16.1908   16.1509   32.7392 C   0  0  0  0  0  0
   16.1698   11.6823   36.3342 C   0  0  0  0  0  0
   11.3083   13.2115   40.3541 C   0  0  0  0  0  0
   14.5327   18.2297   33.9138 O   0  0  0  0  0  0
   15.7787    9.4691   37.1981 O   0  0  0  0  0  0
   13.8032   10.2251   41.1283 O   0  0  0  0  0  0
   12.1918   18.6413   29.8750 N   0  0  0  0  0  0
   18.0314   14.4980   32.6046 N   0  0  0  0  0  0
   11.3944   13.4289   41.5614 O   0  0  0  0  0  0
   12.1722   11.2152   38.9970 C   0  0  0  0  0  0
   16.9397   15.1881   32.0474 C   0  0  0  0  0  0
   17.2965   11.2937   35.5921 C   0  0  0  0  0  0
   15.7961   13.0396   36.3218 C   0  0  0  0  0  0
   16.5923   14.9190   30.7227 C   0  0  0  0  0  0
   12.4528   12.6530   39.5112 C   0  0  0  0  0  0
   15.0977    8.9411   39.7376 O   0  0  0  0  0  0
   18.4143   14.5742   34.0129 C   0  0  0  0  0  0
   17.6239   13.5633   34.8345 C   0  0  0  0  0  0
   10.1761   13.4283   39.6277 O   0  0  0  0  0  0
   16.5242   13.9731   35.5895 C   0  0  0  0  0  0
   18.0161   12.2245   34.8448 C   0  0  0  0  0  0
   14.0957   12.0689   37.7107 H   0  0  0  0  0  0
   13.1027    9.4550   38.1855 H   0  0  0  0  0  0
   16.4126   16.4151   33.7599 H   0  0  0  0  0  0
   13.9273   18.9421   34.1508 H   0  0  0  0  0  0
   11.5442   19.2670   30.3353 H   0  0  0  0  0  0
   12.0350   18.3316   28.9313 H   0  0  0  0  0  0
   18.6285   13.9388   31.9999 H   0  0  0  0  0  0
   11.5168   10.6832   39.6910 H   0  0  0  0  0  0
   11.5881   11.2840   38.0760 H   0  0  0  0  0  0
   17.6261   10.2629   35.5821 H   0  0  0  0  0  0
   14.9507   13.4085   36.8838 H   0  0  0  0  0  0
   17.1415   14.1788   30.1541 H   0  0  0  0  0  0
   12.6713   13.3323   38.6880 H   0  0  0  0  0  0
   13.3411   12.6574   40.1468 H   0  0  0  0  0  0
   15.2509    8.8775   38.7855 H   0  0  0  0  0  0
   18.2962   15.5832   34.4132 H   0  0  0  0  0  0
   19.4789   14.3500   34.0947 H   0  0  0  0  0  0
   10.2717   13.2200   38.6950 H   0  0  0  0  0  0
   16.2237   15.0097   35.6012 H   0  0  0  0  0  0
   18.8734   11.9043   34.2693 H   0  0  0  0  0  0
  1  3  2  0  0  0
  1  6  1  0  0  0
  2  6  2  0  0  0
  2  4  1  0  0  0
  3  5  1  0  0  0
  3  8  1  0  0  0
  4 15  1  0  0  0
  4  5  2  0  0  0
  5 12  1  0  0  0
  6 18  1  0  0  0
  7 13  1  0  0  0
  7  9  1  0  0  0
  7 16  2  0  0  0
  8 25  2  0  0  0
  9 11  1  0  0  0
  9 33  1  0  0  0
 10 11  1  0  0  0
 10 17  2  0  0  0
 10 27  1  0  0  0
 11 21  1  0  0  0
 11 34  1  0  0  0
 12 22  2  0  0  0
 12 35  1  0  0  0
 13 23  1  0  0  0
 13 24  2  0  0  0
 14 26  1  0  0  0
 14 20  2  0  0  0
 14 30  1  0  0  0
 15 36  1  0  0  0
 18 37  1  0  0  0
 18 38  1  0  0  0
 19 22  1  0  0  0
 19 28  1  0  0  0
 19 39  1  0  0  0
 21 26  1  0  0  0
 21 40  1  0  0  0
 21 41  1  0  0  0
 22 25  1  0  0  0
 23 32  2  0  0  0
 23 42  1  0  0  0
 24 31  1  0  0  0
 24 43  1  0  0  0
 25 44  1  0  0  0
 26 45  1  0  0  0
 26 46  1  0  0  0
 27 47  1  0  0  0
 28 29  1  0  0  0
 28 48  1  0  0  0
 28 49  1  0  0  0
 29 31  2  0  0  0
 29 32  1  0  0  0
 30 50  1  0  0  0
 31 51  1  0  0  0
 32 52  1  0  0  0
M  END
> <s_m_entry_id>
41098

> <s_m_entry_name>
dock_pv.215

> <s_m_Source_Path>
/home/csk/Desktop/cluster/DUD-E-result/tysy

> <s_m_Source_File>
dock_pv.maegz

> <i_m_Source_File_Index>
215

> <chembl_id>
CHEMBL157857

> <chembl_pref_name>
None

> <i_lp_mmshare_version>
53161

> <r_lp_tautomer_probability>
1

> <s_lp_Force_Field>
OPLS_2005

> <r_lp_Energy>
12.33669

> <b_lp_Chiralities_Consistent>
1

> <s_lp_Variant>
CHEMBL1952_lig111-1

> <s_i_glide_gridfile>
glide-grid_1syn

> <i_i_glide_lignum>
284

> <i_i_glide_rotatable_bonds>
13

> <r_i_docking_score>
-8.00269801272937

> <r_i_glide_ligand_efficiency>
-0.250084312897793

> <r_i_glide_ligand_efficiency_sa>
-0.793968201832174

> <r_i_glide_ligand_efficiency_ln>
-1.79202223035899

> <r_i_glide_gscore>
-8.00269801272937

> <r_i_glide_lipo>
-2.76146529367418

> <r_i_glide_hbond>
-0.606399332969284

> <r_i_glide_metal>
0

> <r_i_glide_rewards>
-1.3343502734377

> <r_i_glide_evdw>
-54.4418106079102

> <r_i_glide_ecoul>
-10.1781587600708

> <r_i_glide_erotb>
1.02940579757628

> <r_i_glide_esite>
-0.081074565818358

> <r_i_glide_emodel>
-96.7917095886339

> <r_i_glide_energy>
-64.619969367981

> <r_i_glide_einternal>
4.95924282073975

> <i_i_glide_confnum>
127

> <i_i_glide_posenum>
267

> <r_i_glide_eff_state_penalty>
0

> <s_user_duplicate_titles>
CHEMBL1952_lig111

> <i_f3d_flags>
0

> <s_m_subgroup_title>
dock_pv

> <s_m_subgroupid>
dock_pv

> <b_m_subgroup_collapsed>
1

$$$$
CHEMBL1952_lig360
                    3D
 Schrodinger Suite 2021-1.
 55 59  0  0  1  0            999 V2000
   13.2940   12.0082   38.7296 S   0  0  0  0  0  0
   14.9317   16.1358   29.1915 N   0  0  0  0  0  0
   14.1833   17.0919   29.5975 C   0  0  0  0  0  0
   15.6226   15.6960   30.3145 C   0  0  0  0  0  0
   15.2501   16.4174   31.4164 C   0  0  0  0  0  0
   11.6928   12.1721   37.9900 N   0  0  0  0  0  0
   15.7726   16.2545   32.7098 C   0  0  0  0  0  0
   16.7813   15.2461   32.8691 C   0  0  0  0  0  0
   14.3058   17.3410   31.0360 C   0  0  0  0  0  0
   17.4123   15.0419   34.1163 N   0  0  0  0  0  0
   14.4595   12.4858   37.4549 C   0  0  0  0  0  0
   13.5145   10.5852   39.0155 O   0  0  0  0  0  0
   13.3916   13.0078   39.8017 O   0  0  0  0  0  0
   17.1690   14.5004   31.7288 C   0  0  0  0  0  0
   16.5924   14.7095   30.4655 C   0  0  0  0  0  0
   17.5019   13.6575   34.6138 C   0  0  0  0  0  0
   13.3485   17.8419   28.8107 N   0  0  0  0  0  0
    9.4365   12.6292   36.3839 O   0  0  0  0  0  0
   14.6620   13.8394   37.1926 C   0  0  0  0  0  0
   15.1853   11.5189   36.7553 C   0  0  0  0  0  0
   11.3612   11.2230   36.9012 C   0  0  0  0  0  0
   11.2451   13.5547   37.6989 C   0  0  0  0  0  0
   16.3860   13.2705   35.5910 C   0  0  0  0  0  0
   15.2291   17.1306   33.6947 C   0  0  0  0  0  0
   15.6262   14.2288   36.2710 C   0  0  0  0  0  0
   16.1515   11.9134   35.8322 C   0  0  0  0  0  0
   13.7908   18.1919   32.0168 C   0  0  0  0  0  0
   18.6567   15.8022   34.1946 C   0  0  0  0  0  0
    9.7256   13.5381   37.4509 C   0  0  0  0  0  0
    9.8416   11.2795   36.6324 C   0  0  0  0  0  0
   14.2529   18.0789   33.3381 C   0  0  0  0  0  0
   17.9476   13.7551   31.8104 H   0  0  0  0  0  0
   16.9187   14.1227   29.6200 H   0  0  0  0  0  0
   17.4843   12.9427   33.7909 H   0  0  0  0  0  0
   18.4579   13.4936   35.1149 H   0  0  0  0  0  0
   13.2937   17.6513   27.8208 H   0  0  0  0  0  0
   12.7926   18.5872   29.2035 H   0  0  0  0  0  0
   14.1109   14.5961   37.7327 H   0  0  0  0  0  0
   15.0285   10.4675   36.9474 H   0  0  0  0  0  0
   11.8371   11.5671   35.9813 H   0  0  0  0  0  0
   11.6574   10.2104   37.1764 H   0  0  0  0  0  0
   11.4967   14.2206   38.5244 H   0  0  0  0  0  0
   11.6943   13.8781   36.7582 H   0  0  0  0  0  0
   15.5693   17.0658   34.7154 H   0  0  0  0  0  0
   15.7999   15.2830   36.1194 H   0  0  0  0  0  0
   16.7315   11.1622   35.3151 H   0  0  0  0  0  0
   13.0523   18.9420   31.7728 H   0  0  0  0  0  0
   18.4866   16.8585   33.9810 H   0  0  0  0  0  0
   19.0922   15.7398   35.1909 H   0  0  0  0  0  0
   19.3910   15.4285   33.4767 H   0  0  0  0  0  0
    9.1852   13.2368   38.3499 H   0  0  0  0  0  0
    9.3725   14.5357   37.1910 H   0  0  0  0  0  0
    9.2814   10.8833   37.4820 H   0  0  0  0  0  0
    9.5849   10.6671   35.7668 H   0  0  0  0  0  0
   13.8523   18.7413   34.0924 H   0  0  0  0  0  0
  1  6  1  0  0  0
  1 11  1  0  0  0
  1 12  2  0  0  0
  1 13  2  0  0  0
  2  4  1  0  0  0
  2  3  2  0  0  0
  3  9  1  0  0  0
  3 17  1  0  0  0
  4 15  1  0  0  0
  4  5  2  0  0  0
  5  7  1  0  0  0
  5  9  1  0  0  0
  6 21  1  0  0  0
  6 22  1  0  0  0
  7  8  2  0  0  0
  7 24  1  0  0  0
  8 10  1  0  0  0
  8 14  1  0  0  0
  9 27  2  0  0  0
 10 16  1  0  0  0
 10 28  1  0  0  0
 11 19  1  0  0  0
 11 20  2  0  0  0
 14 15  2  0  0  0
 14 32  1  0  0  0
 15 33  1  0  0  0
 16 23  1  0  0  0
 16 34  1  0  0  0
 16 35  1  0  0  0
 17 36  1  0  0  0
 17 37  1  0  0  0
 18 29  1  0  0  0
 18 30  1  0  0  0
 19 25  2  0  0  0
 19 38  1  0  0  0
 20 26  1  0  0  0
 20 39  1  0  0  0
 21 30  1  0  0  0
 21 40  1  0  0  0
 21 41  1  0  0  0
 22 29  1  0  0  0
 22 42  1  0  0  0
 22 43  1  0  0  0
 23 26  2  0  0  0
 23 25  1  0  0  0
 24 31  2  0  0  0
 24 44  1  0  0  0
 25 45  1  0  0  0
 26 46  1  0  0  0
 27 31  1  0  0  0
 27 47  1  0  0  0
 28 48  1  0  0  0
 28 49  1  0  0  0
 28 50  1  0  0  0
 29 51  1  0  0  0
 29 52  1  0  0  0
 30 53  1  0  0  0
 30 54  1  0  0  0
 31 55  1  0  0  0
M  END
> <s_m_entry_id>
41099

> <s_m_entry_name>
dock_pv.216

> <s_m_Source_Path>
/home/csk/Desktop/cluster/DUD-E-result/tysy

> <s_m_Source_File>
dock_pv.maegz

> <i_m_Source_File_Index>
216

> <chembl_id>
CHEMBL9440

> <chembl_pref_name>
METESIND

> <i_lp_mmshare_version>
53161

> <r_lp_tautomer_probability>
1

> <s_lp_Force_Field>
OPLS_2005

> <r_lp_Energy>
50.866123

> <b_lp_Chiralities_Consistent>
1

> <s_lp_Variant>
CHEMBL1952_lig360-1

> <s_i_glide_gridfile>
glide-grid_1syn

> <i_i_glide_lignum>
704

> <i_i_glide_rotatable_bonds>
5

> <r_i_docking_score>
-8.00245396762372

> <r_i_glide_ligand_efficiency>
-0.258143676374959

> <r_i_glide_ligand_efficiency_sa>
-0.810927549573242

> <r_i_glide_ligand_efficiency_ln>
-1.80479861546035

> <r_i_glide_gscore>
-8.00245396762372

> <r_i_glide_lipo>
-4.24725589257061

> <r_i_glide_hbond>
0

> <r_i_glide_metal>
0

> <r_i_glide_rewards>
-1.09194997068311

> <r_i_glide_evdw>
-51.2973175048828

> <r_i_glide_ecoul>
-4.02367305755615

> <r_i_glide_erotb>
0.523036750298666

> <r_i_glide_esite>
-0.0178680207911005

> <r_i_glide_emodel>
-76.2610744560121

> <r_i_glide_energy>
-55.320990562439

> <r_i_glide_einternal>
8.26566886901855

> <i_i_glide_confnum>
27

> <i_i_glide_posenum>
43

> <r_i_glide_eff_state_penalty>
0

> <s_user_duplicate_titles>
CHEMBL1952_lig360,5815

> <i_f3d_flags>
0

> <s_m_subgroup_title>
dock_pv

> <s_m_subgroupid>
dock_pv

> <b_m_subgroup_collapsed>
1

$$$$
CHEMBL1952_lig56
                    3D
 Schrodinger Suite 2021-1.
 30 32  0  0  1  0            999 V2000
   14.6886   17.0835   32.1438 C   0  0  0  0  0  0
   14.2444   17.7406   33.3813 C   0  0  0  0  0  0
   14.0411   17.4438   30.9931 C   0  0  0  0  0  0
   13.3415   18.7211   33.1908 N   0  0  0  0  0  0
   13.0366   18.3694   30.9569 N   0  0  0  0  0  0
   15.7910   16.0660   32.0967 C   0  0  0  0  0  0
   12.7462   19.0282   32.0129 C   0  0  0  0  0  0
   15.9270   15.2551   30.9492 C   0  0  0  0  0  0
   14.5919   17.4798   34.5277 O   0  0  0  0  0  0
   16.7461   15.9420   33.1214 C   0  0  0  0  0  0
   14.3982   16.8052   29.6520 C   0  0  0  0  0  0
   11.7920   20.0542   31.9911 N   0  0  0  0  0  0
   14.8794   15.3505   29.8427 C   0  0  0  0  0  0
   16.9917   14.3523   30.8633 C   0  0  0  0  0  0
   17.7954   15.0267   33.0349 C   0  0  0  0  0  0
   17.9136   14.2288   31.8987 C   0  0  0  0  0  0
   18.8071   14.9218   34.1625 C   0  0  0  0  0  0
   13.0965   19.2473   34.0214 H   0  0  0  0  0  0
   16.7069   16.5736   33.9915 H   0  0  0  0  0  0
   15.1793   17.4085   29.1909 H   0  0  0  0  0  0
   13.5496   16.8375   28.9675 H   0  0  0  0  0  0
   11.2286   20.2266   31.1679 H   0  0  0  0  0  0
   11.5459   20.5751   32.8192 H   0  0  0  0  0  0
   14.0292   14.7273   30.1253 H   0  0  0  0  0  0
   15.2580   14.9458   28.9018 H   0  0  0  0  0  0
   17.0895   13.7192   29.9938 H   0  0  0  0  0  0
   18.7190   13.5125   31.8127 H   0  0  0  0  0  0
   19.5737   14.1715   33.9590 H   0  0  0  0  0  0
   19.2999   15.8829   34.3181 H   0  0  0  0  0  0
   18.3026   14.6583   35.0936 H   0  0  0  0  0  0
  1  2  1  0  0  0
  1  6  1  0  0  0
  1  3  2  0  0  0
  2  4  1  0  0  0
  2  9  2  0  0  0
  3  5  1  0  0  0
  3 11  1  0  0  0
  4  7  1  0  0  0
  4 18  1  0  0  0
  5  7  2  0  0  0
  6  8  2  0  0  0
  6 10  1  0  0  0
  7 12  1  0  0  0
  8 13  1  0  0  0
  8 14  1  0  0  0
 10 15  2  0  0  0
 10 19  1  0  0  0
 11 13  1  0  0  0
 11 20  1  0  0  0
 11 21  1  0  0  0
 12 22  1  0  0  0
 12 23  1  0  0  0
 13 24  1  0  0  0
 13 25  1  0  0  0
 14 16  2  0  0  0
 14 26  1  0  0  0
 15 16  1  0  0  0
 15 17  1  0  0  0
 16 27  1  0  0  0
 17 28  1  0  0  0
 17 29  1  0  0  0
 17 30  1  0  0  0
M  END
> <s_m_entry_id>
41100

> <s_m_entry_name>
dock_pv.217

> <s_m_Source_Path>
/home/csk/Desktop/cluster/DUD-E-result/tysy

> <s_m_Source_File>
dock_pv.maegz

> <i_m_Source_File_Index>
217

> <chembl_id>
CHEMBL306046

> <chembl_pref_name>
None

> <i_lp_mmshare_version>
53161

> <r_lp_tautomer_probability>
0.878315377147829

> <s_lp_Force_Field>
OPLS_2005

> <r_lp_Energy>
19.290829

> <b_lp_Chiralities_Consistent>
1

> <s_lp_Variant>
CHEMBL1952_lig56-1

> <s_i_glide_gridfile>
glide-grid_1syn

> <i_i_glide_lignum>
77

> <i_i_glide_rotatable_bonds>
0

> <r_i_docking_score>
-8.00173222308358

> <r_i_glide_ligand_efficiency>
-0.470690130769622

> <r_i_glide_ligand_efficiency_sa>
-1.21027686700946

> <r_i_glide_ligand_efficiency_ln>
-2.08747374718683

> <r_i_glide_gscore>
-8.00173222308358

> <r_i_glide_lipo>
-2.96818367419388

> <r_i_glide_hbond>
-0.410681770320705

> <r_i_glide_metal>
0

> <r_i_glide_rewards>
-2.1771768906791

> <r_i_glide_evdw>
-36.21630859375

> <r_i_glide_ecoul>
-4.15854406356812

> <r_i_glide_erotb>
0

> <r_i_glide_esite>
-0.0110928486671726

> <r_i_glide_emodel>
-60.6588226090677

> <r_i_glide_energy>
-40.3748526573181

> <r_i_glide_einternal>
0

> <i_i_glide_confnum>
1

> <i_i_glide_posenum>
390

> <r_i_glide_eff_state_penalty>
0

> <s_user_duplicate_titles>
CHEMBL1952_lig56,CHEMBL1952_lig56,CHEMBL1952_lig56

> <i_f3d_flags>
0

> <s_m_subgroup_title>
dock_pv

> <s_m_subgroupid>
dock_pv

> <b_m_subgroup_collapsed>
1

$$$$
CHEMBL1952_lig366
                    3D
 Schrodinger Suite 2021-1.
 38 41  0  0  1  0            999 V2000
   13.7698   16.6786   29.3119 N   0  0  0  0  0  0
   13.2243   17.5734   30.0486 C   0  0  0  0  0  0
   14.7591   16.0933   30.0970 C   0  0  0  0  0  0
   14.7856   16.6643   31.3412 C   0  0  0  0  0  0
   15.6762   16.3279   32.3792 C   0  0  0  0  0  0
   16.6243   15.2730   32.0978 C   0  0  0  0  0  0
   13.8210   17.6463   31.3820 C   0  0  0  0  0  0
   17.5993   14.8058   33.0199 N   0  0  0  0  0  0
   16.5922   14.6943   30.8027 C   0  0  0  0  0  0
   15.6773   15.0876   29.8129 C   0  0  0  0  0  0
   17.3011   14.5944   34.4489 C   0  0  0  0  0  0
   12.1944   18.4018   29.6814 N   0  0  0  0  0  0
   17.5126   10.4600   35.7911 N   0  0  0  0  0  0
   15.5351   17.1267   33.5542 C   0  0  0  0  0  0
   17.4106   13.1400   34.9287 C   0  0  0  0  0  0
   13.6929   18.3904   32.5543 C   0  0  0  0  0  0
   18.9297   14.4904   32.4979 C   0  0  0  0  0  0
   14.5538   18.1296   33.6289 C   0  0  0  0  0  0
   16.4078   11.2206   35.9920 C   0  0  0  0  0  0
   18.5804   11.0436   35.1910 C   0  0  0  0  0  0
   16.3204   12.5539   35.5886 C   0  0  0  0  0  0
   18.5762   12.3731   34.7679 C   0  0  0  0  0  0
   17.2798   13.8997   30.5497 H   0  0  0  0  0  0
   15.6930   14.6078   28.8454 H   0  0  0  0  0  0
   16.2872   14.9196   34.6755 H   0  0  0  0  0  0
   17.9777   15.2178   35.0346 H   0  0  0  0  0  0
   11.8118   18.3480   28.7502 H   0  0  0  0  0  0
   11.7506   19.0215   30.3437 H   0  0  0  0  0  0
   16.1923   16.9805   34.3909 H   0  0  0  0  0  0
   12.9593   19.1795   32.6403 H   0  0  0  0  0  0
   19.1561   15.0280   31.5782 H   0  0  0  0  0  0
   19.7077   14.7366   33.2214 H   0  0  0  0  0  0
   18.9909   13.4289   32.2625 H   0  0  0  0  0  0
   14.4638   18.7250   34.5262 H   0  0  0  0  0  0
   15.5731   10.7405   36.4814 H   0  0  0  0  0  0
   19.4583   10.4274   35.0507 H   0  0  0  0  0  0
   15.4093   13.1096   35.7589 H   0  0  0  0  0  0
   19.4713   12.7718   34.3165 H   0  0  0  0  0  0
  1  2  2  0  0  0
  1  3  1  0  0  0
  2  7  1  0  0  0
  2 12  1  0  0  0
  3  4  1  0  0  0
  3 10  2  0  0  0
  4  5  1  0  0  0
  4  7  2  0  0  0
  5 14  2  0  0  0
  5  6  1  0  0  0
  6  9  2  0  0  0
  6  8  1  0  0  0
  7 16  1  0  0  0
  8 11  1  0  0  0
  8 17  1  0  0  0
  9 10  1  0  0  0
  9 23  1  0  0  0
 10 24  1  0  0  0
 11 15  1  0  0  0
 11 25  1  0  0  0
 11 26  1  0  0  0
 12 27  1  0  0  0
 12 28  1  0  0  0
 13 20  2  0  0  0
 13 19  1  0  0  0
 14 18  1  0  0  0
 14 29  1  0  0  0
 15 21  1  0  0  0
 15 22  2  0  0  0
 16 18  2  0  0  0
 16 30  1  0  0  0
 17 31  1  0  0  0
 17 32  1  0  0  0
 17 33  1  0  0  0
 18 34  1  0  0  0
 19 21  2  0  0  0
 19 35  1  0  0  0
 20 22  1  0  0  0
 20 36  1  0  0  0
 21 37  1  0  0  0
 22 38  1  0  0  0
M  END
> <s_m_entry_id>
41101

> <s_m_entry_name>
dock_pv.218

> <s_m_Source_Path>
/home/csk/Desktop/cluster/DUD-E-result/tysy

> <s_m_Source_File>
dock_pv.maegz

> <i_m_Source_File_Index>
218

> <chembl_id>
CHEMBL55884

> <chembl_pref_name>
None

> <i_lp_mmshare_version>
53161

> <r_lp_tautomer_probability>
1

> <s_lp_Force_Field>
OPLS_2005

> <r_lp_Energy>
47.505884

> <b_lp_Chiralities_Consistent>
1

> <s_lp_Variant>
CHEMBL1952_lig366-1

> <s_i_glide_gridfile>
glide-grid_1syn

> <i_i_glide_lignum>
734

> <i_i_glide_rotatable_bonds>
3

> <r_i_docking_score>
-7.99646383952587

> <r_i_glide_ligand_efficiency>
-0.363475629069358

> <r_i_glide_ligand_efficiency_sa>
-1.01847300733767

> <r_i_glide_ligand_efficiency_ln>
-1.95462744048564

> <r_i_glide_gscore>
-7.99646383952587

> <r_i_glide_lipo>
-3.64401365670168

> <r_i_glide_hbond>
-0.0169957746513794

> <r_i_glide_metal>
0

> <r_i_glide_rewards>
-2.13002258549694

> <r_i_glide_evdw>
-44.7431526184082

> <r_i_glide_ecoul>
-3.9620532989502

> <r_i_glide_erotb>
0.656377094175587

> <r_i_glide_esite>
-0.0303432910885141

> <r_i_glide_emodel>
-71.7109614942653

> <r_i_glide_energy>
-48.7052059173584

> <r_i_glide_einternal>
3.53418517112732

> <i_i_glide_confnum>
4

> <i_i_glide_posenum>
260

> <r_i_glide_eff_state_penalty>
0

> <s_user_duplicate_titles>
CHEMBL1952_lig366,87408

> <i_f3d_flags>
0

> <s_m_subgroup_title>
dock_pv

> <s_m_subgroupid>
dock_pv

> <b_m_subgroup_collapsed>
1

$$$$
CHEMBL1952_lig355
                    3D
 Schrodinger Suite 2021-1.
 52 55  0  0  1  0            999 V2000
   13.9409    7.1459   36.3867 C   0  0  0  0  0  0
   13.8880    8.1249   37.5383 C   0  0  0  0  0  0
   13.7645    5.8610   36.7910 N   0  0  0  0  0  0
   13.5069    6.2355   39.0535 N   0  0  0  0  0  0
   17.3143   15.8274   33.7043 S   0  0  1  0  0  0
   13.6572    7.6090   38.8180 C   0  0  0  0  0  0
   13.5522    5.4203   38.0680 C   0  0  0  0  0  0
   16.4218   15.6366   32.1147 C   0  0  0  0  0  0
   13.5965   12.4748   37.1103 N   0  0  0  0  0  0
   11.2237   11.8566   37.6419 C   0  0  0  0  0  0
   16.2225   14.8349   34.7858 C   0  0  0  0  0  0
   10.4280   11.0195   38.0395 C   0  0  0  0  0  0
   14.0520    9.5015   37.3441 C   0  0  0  0  0  0
   18.6262   15.0500   33.5797 O   0  0  0  0  0  0
   14.4873   13.2926   36.3618 C   0  0  0  0  0  0
   14.1252    7.4282   35.2036 O   0  0  0  0  0  0
   15.3914   16.5181   31.7459 C   0  0  0  0  0  0
   14.1906   11.8682   38.3141 C   0  0  0  0  0  0
   13.9836   10.3618   38.4507 C   0  0  0  0  0  0
   13.5861    8.4637   39.9112 C   0  0  0  0  0  0
   16.6128   13.5633   35.2027 C   0  0  0  0  0  0
   14.9963   15.3579   35.1851 C   0  0  0  0  0  0
   15.7494   12.8013   35.9903 C   0  0  0  0  0  0
   14.1321   14.5855   35.9494 C   0  0  0  0  0  0
   12.1726   12.8685   37.1362 C   0  0  0  0  0  0
   13.7556    9.8350   39.7284 C   0  0  0  0  0  0
   14.8964   17.8278   32.7621 Cl  0  0  0  0  0  0
   16.8231   14.6297   31.2309 C   0  0  0  0  0  0
   13.3845    3.9368   38.2985 C   0  0  0  0  0  0
   14.7620   16.3675   30.5080 C   0  0  0  0  0  0
   16.1933   14.4957   29.9920 C   0  0  0  0  0  0
   15.1618   15.3601   29.6306 C   0  0  0  0  0  0
    9.7363   10.2769   38.3690 H   0  0  0  0  0  0
   14.2261    9.9059   36.3551 H   0  0  0  0  0  0
   13.7883    5.1712   36.0500 H   0  0  0  0  0  0
   13.7645   12.3693   39.1852 H   0  0  0  0  0  0
   15.2593   12.0577   38.3811 H   0  0  0  0  0  0
   13.3936    8.0556   40.8908 H   0  0  0  0  0  0
   17.5693   13.1594   34.9017 H   0  0  0  0  0  0
   14.6951   16.3521   34.9008 H   0  0  0  0  0  0
   16.0552   11.8066   36.2779 H   0  0  0  0  0  0
   13.1788   15.0177   36.2024 H   0  0  0  0  0  0
   12.0389   13.7811   37.7190 H   0  0  0  0  0  0
   11.8402   13.0830   36.1190 H   0  0  0  0  0  0
   13.7041   10.4900   40.5857 H   0  0  0  0  0  0
   17.6285   13.9583   31.4976 H   0  0  0  0  0  0
   14.2940    3.4013   38.0291 H   0  0  0  0  0  0
   13.1552    3.7097   39.3404 H   0  0  0  0  0  0
   12.5718    3.5419   37.6881 H   0  0  0  0  0  0
   13.9715   17.0455   30.2198 H   0  0  0  0  0  0
   16.5068   13.7183   29.3114 H   0  0  0  0  0  0
   14.6785   15.2517   28.6701 H   0  0  0  0  0  0
  1 16  2  0  0  0
  1  2  1  0  0  0
  1  3  1  0  0  0
  2 13  1  0  0  0
  2  6  2  0  0  0
  3  7  1  0  0  0
  3 35  1  0  0  0
  4  6  1  0  0  0
  4  7  2  0  0  0
  5 11  1  0  0  0
  5  8  1  0  0  0
  5 14  2  0  0  0
  6 20  1  0  0  0
  7 29  1  0  0  0
  8 17  2  0  0  0
  8 28  1  0  0  0
  9 18  1  0  0  0
  9 15  1  0  0  0
  9 25  1  0  0  0
 10 25  1  0  0  0
 10 12  3  0  0  0
 11 22  2  0  0  0
 11 21  1  0  0  0
 12 33  1  0  0  0
 13 34  1  0  0  0
 13 19  2  0  0  0
 15 23  1  0  0  0
 15 24  2  0  0  0
 17 27  1  0  0  0
 17 30  1  0  0  0
 18 36  1  0  0  0
 18 37  1  0  0  0
 18 19  1  0  0  0
 19 26  1  0  0  0
 20 26  2  0  0  0
 20 38  1  0  0  0
 21 23  2  0  0  0
 21 39  1  0  0  0
 22 24  1  0  0  0
 22 40  1  0  0  0
 23 41  1  0  0  0
 24 42  1  0  0  0
 25 43  1  0  0  0
 25 44  1  0  0  0
 26 45  1  0  0  0
 28 31  2  0  0  0
 28 46  1  0  0  0
 29 47  1  0  0  0
 29 48  1  0  0  0
 29 49  1  0  0  0
 30 32  2  0  0  0
 30 50  1  0  0  0
 31 32  1  0  0  0
 31 51  1  0  0  0
 32 52  1  0  0  0
M  END
> <s_m_entry_id>
41103

> <s_m_entry_name>
dock_pv.220

> <s_m_Source_Path>
/home/csk/Desktop/cluster/DUD-E-result/tysy

> <s_m_Source_File>
dock_pv.maegz

> <i_m_Source_File_Index>
220

> <chembl_id>
CHEMBL161685

> <chembl_pref_name>
None

> <i_lp_mmshare_version>
53161

> <r_lp_tautomer_probability>
0.883938

> <s_lp_Force_Field>
OPLS_2005

> <r_lp_Energy>
22.118478

> <b_lp_Chiralities_Consistent>
1

> <s_lp_Variant>
CHEMBL1952_lig355-1

> <s_i_glide_gridfile>
glide-grid_1syn

> <i_i_glide_lignum>
663

> <i_i_glide_rotatable_bonds>
7

> <r_i_docking_score>
-7.9936467615244

> <r_i_glide_ligand_efficiency>
-0.249801461297638

> <r_i_glide_ligand_efficiency_sa>
-0.793070203977936

> <r_i_glide_ligand_efficiency_ln>
-1.78999540848641

> <r_i_glide_gscore>
-7.9936467615244

> <r_i_glide_lipo>
-3.92069307621158

> <r_i_glide_hbond>
-0.608

> <r_i_glide_metal>
0

> <r_i_glide_rewards>
-0.729229787740043

> <r_i_glide_evdw>
-47.5003776550293

> <r_i_glide_ecoul>
-6.46584463119507

> <r_i_glide_erotb>
0.660613839158637

> <r_i_glide_esite>
-0.0514421593006865

> <r_i_glide_emodel>
-77.2205409270226

> <r_i_glide_energy>
-53.9662222862244

> <r_i_glide_einternal>
3.01897048950195

> <i_i_glide_confnum>
39

> <i_i_glide_posenum>
302

> <r_i_glide_eff_state_penalty>
0

> <s_user_duplicate_titles>
CHEMBL1952_lig355

> <i_f3d_flags>
0

> <s_m_subgroup_title>
dock_pv

> <s_m_subgroupid>
dock_pv

> <b_m_subgroup_collapsed>
1

$$$$
CHEMBL1952_lig230
                    3D
 Schrodinger Suite 2021-1.
 60 62  0  0  1  0            999 V2000
   13.2979   17.9997   31.5192 N   0  0  0  0  0  0
   13.2917   17.2595   30.3693 C   0  0  0  0  0  0
   14.1819   16.3634   30.1475 N   0  0  0  0  0  0
   14.1919   17.9234   32.5303 C   0  0  0  0  0  0
   14.1084   18.6268   33.5287 O   0  0  0  0  0  0
   15.2627   16.8950   32.2774 C   0  0  0  0  0  0
   15.2055   16.1569   31.0930 C   0  0  0  0  0  0
   16.1926   15.2041   30.8355 C   0  0  0  0  0  0
   17.2339   15.0159   31.7519 C   0  0  0  0  0  0
   17.2896   15.7709   32.9356 C   0  0  0  0  0  0
   16.2894   16.7075   33.1965 C   0  0  0  0  0  0
   18.4543   15.6501   33.9202 C   0  0  0  0  0  0
   18.8842   14.2664   34.1424 N   0  0  0  0  0  0
   18.0135   13.3510   34.7991 C   0  0  0  0  0  0
   18.2922   11.9781   34.8544 C   0  0  0  0  0  0
   17.4302   11.0886   35.4975 C   0  0  0  0  0  0
   16.2378   11.5355   36.0784 C   0  0  0  0  0  0
   15.9625   12.9193   36.0608 C   0  0  0  0  0  0
   16.8342   13.7908   35.4192 C   0  0  0  0  0  0
   15.3331   10.5334   36.7518 C   0  0  0  0  0  0
   15.7912    9.6343   37.4601 O   0  0  0  0  0  0
   14.0205   10.7079   36.5240 N   0  0  0  0  0  0
   12.9186    9.9684   37.1465 C   0  0  1  0  0  0
   12.2248   10.8905   38.1912 C   0  0  0  0  0  0
   11.9453    9.4445   36.0668 C   0  0  0  0  0  0
   12.5920    8.6279   35.1911 O   0  0  0  0  0  0
   10.7587    9.6961   36.0388 O   0  0  0  0  0  0
   13.1072   11.2856   39.3970 C   0  0  0  0  0  0
   12.5057   12.4395   40.1992 C   0  0  0  0  0  0
   12.8466   13.6586   39.6872 O   0  0  0  0  0  0
   11.7962   12.2882   41.1903 O   0  0  0  0  0  0
   12.1923   17.5230   29.3714 C   0  0  0  0  0  0
   20.3353   14.0418   34.1532 C   0  0  0  0  0  0
   14.5919   13.6399   36.8459 Cl  0  0  0  0  0  0
   21.0260   14.3724   32.8163 C   0  0  0  0  0  0
   12.5848   18.6979   31.6582 H   0  0  0  0  0  0
   16.1550   14.6242   29.9252 H   0  0  0  0  0  0
   18.0100   14.2916   31.5388 H   0  0  0  0  0  0
   16.3156   17.3075   34.0902 H   0  0  0  0  0  0
   18.1933   16.0870   34.8778 H   0  0  0  0  0  0
   19.2815   16.2697   33.5910 H   0  0  0  0  0  0
   19.1683   11.5692   34.3724 H   0  0  0  0  0  0
   17.6884   10.0384   35.5052 H   0  0  0  0  0  0
   16.5740   14.8367   35.4373 H   0  0  0  0  0  0
   13.7451   11.4366   35.8819 H   0  0  0  0  0  0
   13.3025    9.0864   37.6620 H   0  0  0  0  0  0
   11.3353   10.3902   38.5815 H   0  0  0  0  0  0
   11.8588   11.7920   37.6934 H   0  0  0  0  0  0
   11.9590    8.1748   34.6108 H   0  0  0  0  0  0
   14.1089   11.5784   39.0812 H   0  0  0  0  0  0
   13.2393   10.4228   40.0522 H   0  0  0  0  0  0
   13.3835   13.6025   38.8932 H   0  0  0  0  0  0
   12.6155   17.6953   28.3849 H   0  0  0  0  0  0
   11.5119   16.6724   29.3153 H   0  0  0  0  0  0
   11.5968   18.4015   29.6285 H   0  0  0  0  0  0
   20.7707   14.6606   34.9369 H   0  0  0  0  0  0
   20.5917   13.0279   34.4367 H   0  0  0  0  0  0
   22.0788   14.0903   32.8411 H   0  0  0  0  0  0
   20.5594   13.8361   31.9937 H   0  0  0  0  0  0
   20.9915   15.4269   32.5599 H   0  0  0  0  0  0
  1  2  1  0  0  0
  1  4  1  0  0  0
  1 36  1  0  0  0
  2 32  1  0  0  0
  2  3  2  0  0  0
  3  7  1  0  0  0
  4  6  1  0  0  0
  4  5  2  0  0  0
  6 11  1  0  0  0
  6  7  2  0  0  0
  7  8  1  0  0  0
  8  9  2  0  0  0
  8 37  1  0  0  0
  9 10  1  0  0  0
  9 38  1  0  0  0
 10 11  2  0  0  0
 10 12  1  0  0  0
 11 39  1  0  0  0
 12 13  1  0  0  0
 12 40  1  0  0  0
 12 41  1  0  0  0
 13 14  1  0  0  0
 13 33  1  0  0  0
 14 19  1  0  0  0
 14 15  2  0  0  0
 15 16  1  0  0  0
 15 42  1  0  0  0
 16 17  2  0  0  0
 16 43  1  0  0  0
 17 18  1  0  0  0
 17 20  1  0  0  0
 18 19  2  0  0  0
 18 34  1  0  0  0
 19 44  1  0  0  0
 20 21  2  0  0  0
 20 22  1  0  0  0
 22 23  1  0  0  0
 22 45  1  0  0  0
 23 24  1  0  0  0
 23 25  1  0  0  0
 23 46  1  0  0  0
 24 28  1  0  0  0
 24 47  1  0  0  0
 24 48  1  0  0  0
 25 26  1  0  0  0
 25 27  2  0  0  0
 26 49  1  0  0  0
 28 29  1  0  0  0
 28 50  1  0  0  0
 28 51  1  0  0  0
 29 30  1  0  0  0
 29 31  2  0  0  0
 30 52  1  0  0  0
 32 53  1  0  0  0
 32 54  1  0  0  0
 32 55  1  0  0  0
 33 35  1  0  0  0
 33 56  1  0  0  0
 33 57  1  0  0  0
 35 58  1  0  0  0
 35 59  1  0  0  0
 35 60  1  0  0  0
M  END
> <s_m_entry_id>
41104

> <s_m_entry_name>
dock_pv.221

> <s_m_Source_Path>
/home/csk/Desktop/cluster/DUD-E-result/tysy

> <s_m_Source_File>
dock_pv.maegz

> <i_m_Source_File_Index>
221

> <chembl_id>
CHEMBL105899

> <chembl_pref_name>
None

> <i_lp_mmshare_version>
53161

> <r_lp_tautomer_probability>
0.883938

> <s_lp_Force_Field>
OPLS_2005

> <r_lp_Energy>
24.692492

> <b_lp_Chiralities_Consistent>
1

> <s_lp_Variant>
CHEMBL1952_lig230-1

> <s_i_glide_gridfile>
glide-grid_1syn

> <i_i_glide_lignum>
456

> <i_i_glide_rotatable_bonds>
13

> <r_i_docking_score>
-7.98900384593509

> <r_i_glide_ligand_efficiency>
-0.228257252741003

> <r_i_glide_ligand_efficiency_sa>
-0.746644608612435

> <r_i_glide_ligand_efficiency_ln>
-1.7537636505701

> <r_i_glide_gscore>
-7.98900384593509

> <r_i_glide_lipo>
-3.5832618814186

> <r_i_glide_hbond>
-0.313853929483544

> <r_i_glide_metal>
0

> <r_i_glide_rewards>
-0.479773660017288

> <r_i_glide_evdw>
-53.9482040405273

> <r_i_glide_ecoul>
-11.252552986145

> <r_i_glide_erotb>
0.813885383921031

> <r_i_glide_esite>
-0.0407066089885648

> <r_i_glide_emodel>
-93.5659148697488

> <r_i_glide_energy>
-65.2007570266724

> <r_i_glide_einternal>
8.01681613922119

> <i_i_glide_confnum>
129

> <i_i_glide_posenum>
381

> <r_i_glide_eff_state_penalty>
0

> <s_user_duplicate_titles>
CHEMBL1952_lig230,CHEMBL1952_lig230,171202

> <i_f3d_flags>
0

> <s_m_subgroup_title>
dock_pv

> <s_m_subgroupid>
dock_pv

> <b_m_subgroup_collapsed>
1

$$$$
CHEMBL1952_lig465
                    3D
 Schrodinger Suite 2021-1.
 46 50  0  0  1  0            999 V2000
   13.2530   13.6894   38.2000 O   0  0  0  0  0  0
   13.6145   12.3390   37.7510 S   0  0  0  0  0  0
   13.8876   11.2620   38.7108 O   0  0  0  0  0  0
   18.3925   15.4281   34.8233 O   0  0  0  0  0  0
   18.2487   14.0629   34.3139 S   0  0  0  0  0  0
   19.3916   13.1520   34.2875 O   0  0  0  0  0  0
   15.3440   16.0008   30.3585 C   0  0  0  0  0  0
   16.3085   15.0874   30.8566 C   0  0  0  0  0  0
   13.0422   18.7397   31.8033 C   0  0  0  0  0  0
   14.3499   17.7964   33.5926 C   0  0  0  0  0  0
   13.7165   17.8277   30.8252 C   0  0  0  0  0  0
   14.5910   17.8569   34.7911 O   0  0  0  0  0  0
   14.9928   16.0834   28.9953 C   0  0  0  0  0  0
   12.1926   19.5850   31.5250 O   0  0  0  0  0  0
   14.7016   16.8862   31.2644 C   0  0  0  0  0  0
   13.4012   18.6282   33.1031 O   0  0  0  0  0  0
   16.6349   15.0700   32.2162 C   0  0  0  0  0  0
   13.4184   17.8785   29.4636 C   0  0  0  0  0  0
   15.9937   15.9610   33.0842 C   0  0  0  0  0  0
   14.0562   17.0283   28.5699 C   0  0  0  0  0  0
   15.0274   16.8658   32.6442 C   0  0  0  0  0  0
   17.5997   14.1449   32.6597 N   0  0  0  0  0  0
   16.9757   13.1972   35.2738 C   0  0  0  0  0  0
   15.5977   13.9825   35.9917 S   0  0  0  0  0  0
   15.0854   12.4828   36.7038 C   0  0  0  0  0  0
   15.9442   11.4393   36.3883 C   0  0  0  0  0  0
   17.0183   11.8455   35.5912 C   0  0  0  0  0  0
   12.3295   11.7434   36.6526 C   0  0  0  0  0  0
   12.4598   10.4784   36.0732 C   0  0  0  0  0  0
   11.4703   10.0031   35.2160 C   0  0  0  0  0  0
   10.3465   10.7879   34.9599 C   0  0  0  0  0  0
   10.2048   12.0412   35.5519 C   0  0  0  0  0  0
   11.2044   12.5302   36.3910 C   0  0  0  0  0  0
   16.7940   14.4093   30.1695 H   0  0  0  0  0  0
   15.4639   15.4234   28.2803 H   0  0  0  0  0  0
   12.6877   18.5823   29.0855 H   0  0  0  0  0  0
   16.2297   15.9614   34.1335 H   0  0  0  0  0  0
   13.7897   17.0859   27.5229 H   0  0  0  0  0  0
   17.9524   13.4579   32.0110 H   0  0  0  0  0  0
   15.8122   10.4301   36.7417 H   0  0  0  0  0  0
   17.8066   11.1845   35.2620 H   0  0  0  0  0  0
   13.3239    9.8636   36.2828 H   0  0  0  0  0  0
   11.5678    9.0281   34.7581 H   0  0  0  0  0  0
    9.5772   10.4175   34.2947 H   0  0  0  0  0  0
    9.3287   12.6384   35.3499 H   0  0  0  0  0  0
   11.0969   13.5105   36.8358 H   0  0  0  0  0  0
  1  2  2  0  0  0
  2  3  2  0  0  0
  2 25  1  0  0  0
  2 28  1  0  0  0
  4  5  2  0  0  0
  5  6  2  0  0  0
  5 22  1  0  0  0
  5 23  1  0  0  0
  7 13  2  0  0  0
  7 15  1  0  0  0
  7  8  1  0  0  0
  8 17  2  0  0  0
  8 34  1  0  0  0
  9 11  1  0  0  0
  9 14  2  0  0  0
  9 16  1  0  0  0
 10 21  1  0  0  0
 10 16  1  0  0  0
 10 12  2  0  0  0
 11 18  1  0  0  0
 11 15  2  0  0  0
 13 20  1  0  0  0
 13 35  1  0  0  0
 15 21  1  0  0  0
 17 19  1  0  0  0
 17 22  1  0  0  0
 18 20  2  0  0  0
 18 36  1  0  0  0
 19 21  2  0  0  0
 19 37  1  0  0  0
 20 38  1  0  0  0
 22 39  1  0  0  0
 23 24  1  0  0  0
 23 27  2  0  0  0
 24 25  1  0  0  0
 25 26  2  0  0  0
 26 27  1  0  0  0
 26 40  1  0  0  0
 27 41  1  0  0  0
 28 29  2  0  0  0
 28 33  1  0  0  0
 29 30  1  0  0  0
 29 42  1  0  0  0
 30 31  2  0  0  0
 30 43  1  0  0  0
 31 32  1  0  0  0
 31 44  1  0  0  0
 32 33  2  0  0  0
 32 45  1  0  0  0
 33 46  1  0  0  0
M  END
> <s_m_entry_id>
41106

> <s_m_entry_name>
dock_pv.223

> <s_m_Source_Path>
/home/csk/Desktop/cluster/DUD-E-result/tysy

> <s_m_Source_File>
dock_pv.maegz

> <i_m_Source_File_Index>
223

> <chembl_id>
CHEMBL2323393

> <chembl_pref_name>
None

> <i_lp_mmshare_version>
53161

> <r_lp_tautomer_probability>
1

> <s_lp_Force_Field>
OPLS_2005

> <r_lp_Energy>
34.226884

> <b_lp_Chiralities_Consistent>
1

> <s_lp_Variant>
CHEMBL1952_lig465-1

> <s_i_glide_gridfile>
glide-grid_1syn

> <i_i_glide_lignum>
895

> <i_i_glide_rotatable_bonds>
5

> <r_i_docking_score>
-7.97594687419059

> <r_i_glide_ligand_efficiency>
-0.241695359823957

> <r_i_glide_ligand_efficiency_sa>
-0.775246163132486

> <r_i_glide_ligand_efficiency_ln>
-1.77380928757725

> <r_i_glide_gscore>
-7.97594687419059

> <r_i_glide_lipo>
-4.08917568721593

> <r_i_glide_hbond>
0

> <r_i_glide_metal>
0

> <r_i_glide_rewards>
-1.13088408015859

> <r_i_glide_evdw>
-58.6627426147461

> <r_i_glide_ecoul>
-0.944720804691315

> <r_i_glide_erotb>
0.409024251085099

> <r_i_glide_esite>
-0.0900661064601668

> <r_i_glide_emodel>
-87.6488668591765

> <r_i_glide_energy>
-59.6074634194374

> <r_i_glide_einternal>
1.44972002506256

> <i_i_glide_confnum>
21

> <i_i_glide_posenum>
347

> <r_i_glide_eff_state_penalty>
0

> <s_user_duplicate_titles>
CHEMBL1952_lig465

> <i_f3d_flags>
0

> <s_m_subgroup_title>
dock_pv

> <s_m_subgroupid>
dock_pv

> <b_m_subgroup_collapsed>
1

$$$$
CHEMBL1952_lig100
                    3D
 Schrodinger Suite 2021-1.
 58 60  0  0  1  0            999 V2000
   11.7921   18.2088   29.5911 N   0  0  0  0  0  0
   12.9176   17.5900   30.1535 C   0  0  0  0  0  0
   13.6870   16.9069   29.3993 N   0  0  0  0  0  0
   14.8141   16.2252   29.8878 C   0  0  0  0  0  0
   15.6245   15.6126   29.1952 O   0  0  0  0  0  0
   15.0171   16.2960   31.3954 C   0  0  0  0  0  0
   16.0807   15.6270   32.0286 C   0  0  0  0  0  0
   16.2542   15.7357   33.4180 C   0  0  0  0  0  0
   17.5025   15.1215   34.0848 C   0  0  0  0  0  0
   17.3925   13.7058   34.5096 N   0  0  0  0  0  0
   18.3781   12.7635   33.9260 C   0  0  0  0  0  0
   18.8598   11.6576   34.7909 C   0  0  0  0  0  0
   19.2285   10.6881   35.4357 C   0  0  0  0  0  0
   16.4069   13.3048   35.4614 C   0  0  0  0  0  0
   15.8841   14.2279   36.3647 C   0  0  0  0  0  0
   14.9108   13.8699   37.2850 C   0  0  0  0  0  0
   14.4648   12.5459   37.3724 C   0  0  0  0  0  0
   14.9702   11.6112   36.4674 C   0  0  0  0  0  0
   15.9201   11.9912   35.5287 C   0  0  0  0  0  0
   13.5179   12.0982   38.4573 C   0  0  0  0  0  0
   13.2802   10.9016   38.6357 O   0  0  0  0  0  0
   12.9861   13.0648   39.2250 N   0  0  0  0  0  0
   12.1041   12.8369   40.3666 C   0  0  2  0  0  0
   10.6960   12.3879   39.8844 C   0  0  0  0  0  0
    9.8056   13.4540   39.1887 C   0  0  0  0  0  0
    8.4595   12.8787   38.7344 C   0  0  0  0  0  0
    8.1889   11.6787   38.7609 O   0  0  0  0  0  0
    7.5831   13.8280   38.2922 O   0  0  0  0  0  0
   12.1906   14.0122   41.3685 C   0  0  0  0  0  0
   13.2099   14.6292   41.5995 O   0  0  0  0  0  0
   10.9975   14.2280   41.9910 O   0  0  0  0  0  0
   15.3368   16.5109   34.1514 C   0  0  0  0  0  0
   14.2864   17.1748   33.5262 C   0  0  0  0  0  0
   14.1339   17.0688   32.1554 C   0  0  0  0  0  0
   13.0955   17.7336   31.5057 N   0  0  0  0  0  0
   11.7563   18.3108   28.5900 H   0  0  0  0  0  0
   11.3282   18.9708   30.0665 H   0  0  0  0  0  0
   16.7880   15.0438   31.4507 H   0  0  0  0  0  0
   18.3227   15.2249   33.3720 H   0  0  0  0  0  0
   17.8189   15.7303   34.9315 H   0  0  0  0  0  0
   17.9573   12.3123   33.0277 H   0  0  0  0  0  0
   19.2784   13.2938   33.6097 H   0  0  0  0  0  0
   19.5508    9.8311   35.9808 H   0  0  0  0  0  0
   16.2731   15.2294   36.3966 H   0  0  0  0  0  0
   14.5790   14.6312   37.9740 H   0  0  0  0  0  0
   14.6430   10.5798   36.4889 H   0  0  0  0  0  0
   16.2557   11.2451   34.8275 H   0  0  0  0  0  0
   13.2283   14.0251   39.0405 H   0  0  0  0  0  0
   12.5333   11.9964   40.9165 H   0  0  0  0  0  0
   10.8042   11.5426   39.2023 H   0  0  0  0  0  0
   10.1920   11.9530   40.7407 H   0  0  0  0  0  0
    9.6149   14.2962   39.8508 H   0  0  0  0  0  0
   10.3206   13.8454   38.3104 H   0  0  0  0  0  0
    7.8525   14.7552   38.3914 H   0  0  0  0  0  0
   11.0380   14.9557   42.6235 H   0  0  0  0  0  0
   15.4002   16.6504   35.2163 H   0  0  0  0  0  0
   13.6037   17.7764   34.1071 H   0  0  0  0  0  0
   12.4719   18.3204   32.0337 H   0  0  0  0  0  0
  1  2  1  0  0  0
  1 36  1  0  0  0
  1 37  1  0  0  0
  2  3  2  0  0  0
  2 35  1  0  0  0
  3  4  1  0  0  0
  4  5  2  0  0  0
  4  6  1  0  0  0
  6  7  2  0  0  0
  6 34  1  0  0  0
  7  8  1  0  0  0
  7 38  1  0  0  0
  8  9  1  0  0  0
  8 32  2  0  0  0
  9 10  1  0  0  0
  9 39  1  0  0  0
  9 40  1  0  0  0
 10 11  1  0  0  0
 10 14  1  0  0  0
 11 12  1  0  0  0
 11 41  1  0  0  0
 11 42  1  0  0  0
 12 13  3  0  0  0
 13 43  1  0  0  0
 14 15  2  0  0  0
 14 19  1  0  0  0
 15 16  1  0  0  0
 15 44  1  0  0  0
 16 17  2  0  0  0
 16 45  1  0  0  0
 17 18  1  0  0  0
 17 20  1  0  0  0
 18 19  2  0  0  0
 18 46  1  0  0  0
 19 47  1  0  0  0
 20 21  2  0  0  0
 20 22  1  0  0  0
 22 23  1  0  0  0
 22 48  1  0  0  0
 23 24  1  0  0  0
 23 29  1  0  0  0
 23 49  1  0  0  0
 24 25  1  0  0  0
 24 50  1  0  0  0
 24 51  1  0  0  0
 25 26  1  0  0  0
 25 52  1  0  0  0
 25 53  1  0  0  0
 26 27  2  0  0  0
 26 28  1  0  0  0
 28 54  1  0  0  0
 29 30  2  0  0  0
 29 31  1  0  0  0
 31 55  1  0  0  0
 32 33  1  0  0  0
 32 56  1  0  0  0
 33 34  2  0  0  0
 33 57  1  0  0  0
 34 35  1  0  0  0
 35 58  1  0  0  0
M  END
> <s_m_entry_id>
41107

> <s_m_entry_name>
dock_pv.224

> <s_m_Source_Path>
/home/csk/Desktop/cluster/DUD-E-result/tysy

> <s_m_Source_File>
dock_pv.maegz

> <i_m_Source_File_Index>
224

> <chembl_id>
CHEMBL422395

> <chembl_pref_name>
None

> <i_lp_mmshare_version>
53161

> <r_lp_tautomer_probability>
1

> <s_lp_Force_Field>
OPLS_2005

> <r_lp_Energy>
18.354776

> <b_lp_Chiralities_Consistent>
1

> <s_lp_Variant>
CHEMBL1952_lig100-1

> <s_i_glide_gridfile>
glide-grid_1syn

> <i_i_glide_lignum>
184

> <i_i_glide_rotatable_bonds>
14

> <r_i_docking_score>
-7.97287962305982

> <r_i_glide_ligand_efficiency>
-0.227796560658852

> <r_i_glide_ligand_efficiency_sa>
-0.745137654264928

> <r_i_glide_ligand_efficiency_ln>
-1.75022402579113

> <r_i_glide_gscore>
-7.97287962305982

> <r_i_glide_lipo>
-3.2044523906083

> <r_i_glide_hbond>
-0.248228337120065

> <r_i_glide_metal>
0

> <r_i_glide_rewards>
-0.68216498452695

> <r_i_glide_evdw>
-52.9436149597168

> <r_i_glide_ecoul>
-14.5430946350098

> <r_i_glide_erotb>
1.06628412535036

> <r_i_glide_esite>
-0.0756730929175641

> <r_i_glide_emodel>
-98.5791808234374

> <r_i_glide_energy>
-67.4867095947266

> <r_i_glide_einternal>
4.96131944656372

> <i_i_glide_confnum>
4

> <i_i_glide_posenum>
198

> <r_i_glide_eff_state_penalty>
0

> <s_user_duplicate_titles>
CHEMBL1952_lig100,29325

> <i_f3d_flags>
0

> <s_m_subgroup_title>
dock_pv

> <s_m_subgroupid>
dock_pv

> <b_m_subgroup_collapsed>
1

$$$$
CHEMBL1952_lig470
                    3D
 Schrodinger Suite 2021-1.
 36 39  0  0  1  0            999 V2000
   18.5730   15.4914   34.7905 O   0  0  0  0  0  0
   18.2982   14.1104   34.3839 S   0  0  0  0  0  0
   19.3673   13.1097   34.3912 O   0  0  0  0  0  0
   15.4022   15.9777   30.3761 C   0  0  0  0  0  0
   16.3623   15.0693   30.8920 C   0  0  0  0  0  0
   13.0972   18.7399   31.7741 C   0  0  0  0  0  0
   14.3820   17.8016   33.5865 C   0  0  0  0  0  0
   13.7880   17.8271   30.8078 C   0  0  0  0  0  0
   14.5919   17.8530   34.7911 O   0  0  0  0  0  0
   15.0657   16.0489   29.0095 C   0  0  0  0  0  0
   12.2478   19.5819   31.4829 O   0  0  0  0  0  0
   14.7575   16.8800   31.2669 C   0  0  0  0  0  0
   13.4373   18.6283   33.0817 O   0  0  0  0  0  0
   16.7053   15.0874   32.2460 C   0  0  0  0  0  0
   13.5184   17.8762   29.4403 C   0  0  0  0  0  0
   16.0735   16.0045   33.0907 C   0  0  0  0  0  0
   14.1617   17.0127   28.5602 C   0  0  0  0  0  0
   15.0842   16.8807   32.6457 C   0  0  0  0  0  0
   17.6597   14.1635   32.7208 N   0  0  0  0  0  0
   16.9736   13.4442   35.4018 C   0  0  0  0  0  0
   16.8343   12.0590   35.5213 C   0  0  0  0  0  0
   15.7849   11.5268   36.2666 C   0  0  0  0  0  0
   14.8745   12.3795   36.8890 C   0  0  0  0  0  0
   15.0181   13.7622   36.7875 C   0  0  0  0  0  0
   16.0752   14.2931   36.0537 C   0  0  0  0  0  0
   16.8436   14.3750   30.2189 H   0  0  0  0  0  0
   15.5383   15.3773   28.3085 H   0  0  0  0  0  0
   12.8045   18.5879   29.0435 H   0  0  0  0  0  0
   16.3449   16.0498   34.1251 H   0  0  0  0  0  0
   13.9235   17.0707   27.5080 H   0  0  0  0  0  0
   17.9699   13.4265   32.1034 H   0  0  0  0  0  0
   17.5330   11.3961   35.0292 H   0  0  0  0  0  0
   15.6746   10.4563   36.3558 H   0  0  0  0  0  0
   14.0597   11.9677   37.4647 H   0  0  0  0  0  0
   14.3236   14.4250   37.2847 H   0  0  0  0  0  0
   16.1905   15.3638   36.0283 H   0  0  0  0  0  0
  1  2  2  0  0  0
  2  3  2  0  0  0
  2 19  1  0  0  0
  2 20  1  0  0  0
  4 10  2  0  0  0
  4 12  1  0  0  0
  4  5  1  0  0  0
  5 14  2  0  0  0
  5 26  1  0  0  0
  6  8  1  0  0  0
  6 11  2  0  0  0
  6 13  1  0  0  0
  7 18  1  0  0  0
  7 13  1  0  0  0
  7  9  2  0  0  0
  8 15  1  0  0  0
  8 12  2  0  0  0
 10 17  1  0  0  0
 10 27  1  0  0  0
 12 18  1  0  0  0
 14 16  1  0  0  0
 14 19  1  0  0  0
 15 17  2  0  0  0
 15 28  1  0  0  0
 16 18  2  0  0  0
 16 29  1  0  0  0
 17 30  1  0  0  0
 19 31  1  0  0  0
 20 21  2  0  0  0
 20 25  1  0  0  0
 21 22  1  0  0  0
 21 32  1  0  0  0
 22 23  2  0  0  0
 22 33  1  0  0  0
 23 24  1  0  0  0
 23 34  1  0  0  0
 24 25  2  0  0  0
 24 35  1  0  0  0
 25 36  1  0  0  0
M  END
> <s_m_entry_id>
41108

> <s_m_entry_name>
dock_pv.225

> <s_m_Source_Path>
/home/csk/Desktop/cluster/DUD-E-result/tysy

> <s_m_Source_File>
dock_pv.maegz

> <i_m_Source_File_Index>
225

> <chembl_id>
CHEMBL2323388

> <chembl_pref_name>
None

> <i_lp_mmshare_version>
53161

> <r_lp_tautomer_probability>
1

> <s_lp_Force_Field>
OPLS_2005

> <r_lp_Energy>
35.879642

> <b_lp_Chiralities_Consistent>
1

> <s_lp_Variant>
CHEMBL1952_lig470-1

> <s_i_glide_gridfile>
glide-grid_1syn

> <i_i_glide_lignum>
900

> <i_i_glide_rotatable_bonds>
3

> <r_i_docking_score>
-7.96905395298674

> <r_i_glide_ligand_efficiency>
-0.318762158119469

> <r_i_glide_ligand_efficiency_sa>
-0.932066203612275

> <r_i_glide_ligand_efficiency_ln>
-1.88890460013378

> <r_i_glide_gscore>
-7.96905395298674

> <r_i_glide_lipo>
-3.85186140118409

> <r_i_glide_hbond>
0

> <r_i_glide_metal>
0

> <r_i_glide_rewards>
-2.08303613397859

> <r_i_glide_evdw>
-48.8658409118652

> <r_i_glide_ecoul>
0.252610683441162

> <r_i_glide_erotb>
0.458827469457283

> <r_i_glide_esite>
-0.087583444204254

> <r_i_glide_emodel>
-72.3877954550288

> <r_i_glide_energy>
-48.6132302284241

> <r_i_glide_einternal>
0.96423351764679

> <i_i_glide_confnum>
10

> <i_i_glide_posenum>
193

> <r_i_glide_eff_state_penalty>
0

> <s_user_duplicate_titles>
CHEMBL1952_lig470

> <i_f3d_flags>
0

> <s_m_subgroup_title>
dock_pv

> <s_m_subgroupid>
dock_pv

> <b_m_subgroup_collapsed>
1

$$$$
CHEMBL1952_lig213
                    3D
 Schrodinger Suite 2021-1.
 57 59  0  0  1  0            999 V2000
   13.2847   17.8732   31.4786 N   0  0  0  0  0  0
   13.2758   17.0607   30.3808 C   0  0  0  0  0  0
   14.1694   16.1552   30.2062 N   0  0  0  0  0  0
   14.1896   17.8695   32.4791 C   0  0  0  0  0  0
   14.1035   18.6280   33.4334 O   0  0  0  0  0  0
   15.2723   16.8446   32.2783 C   0  0  0  0  0  0
   15.2034   16.0165   31.1514 C   0  0  0  0  0  0
   16.1926   15.0532   30.9515 C   0  0  0  0  0  0
   17.2490   14.9423   31.8637 C   0  0  0  0  0  0
   17.3178   15.7903   32.9840 C   0  0  0  0  0  0
   16.3144   16.7369   33.1911 C   0  0  0  0  0  0
   18.4828   15.7574   33.9726 C   0  0  0  0  0  0
   18.9631   14.4145   34.2694 N   0  0  0  0  0  0
   18.1006   13.4527   34.8491 C   0  0  0  0  0  0
   16.9282   13.8485   35.5100 C   0  0  0  0  0  0
   16.0688   12.9161   36.0762 C   0  0  0  0  0  0
   16.3556   11.5473   36.0024 C   0  0  0  0  0  0
   17.5283   11.1410   35.3464 C   0  0  0  0  0  0
   18.3899   12.0835   34.7910 C   0  0  0  0  0  0
   15.4012   10.5407   36.5858 C   0  0  0  0  0  0
   15.7937    9.5453   37.1935 O   0  0  0  0  0  0
   14.1034   10.8301   36.3966 N   0  0  0  0  0  0
   12.9716    9.9889   36.7911 C   0  0  1  0  0  0
   11.7253   10.8894   37.0537 C   0  0  0  0  0  0
   12.7270    8.8825   35.7342 C   0  0  0  0  0  0
   11.5614    8.2285   35.9938 O   0  0  0  0  0  0
   13.4700    8.6209   34.8103 O   0  0  0  0  0  0
   11.9221   12.0986   38.0053 C   0  0  0  0  0  0
   12.2074   11.7141   39.4601 C   0  0  0  0  0  0
   13.4796   11.2589   39.6360 O   0  0  0  0  0  0
   11.3910   11.8269   40.3736 O   0  0  0  0  0  0
   12.1741   17.2629   29.3730 C   0  0  0  0  0  0
   17.8314    9.8331   35.1911 F   0  0  0  0  0  0
   20.2363   14.0212   33.6835 C   0  0  0  0  0  0
   12.5681   18.5731   31.5810 H   0  0  0  0  0  0
   16.1449   14.4079   30.0880 H   0  0  0  0  0  0
   18.0201   14.2053   31.6957 H   0  0  0  0  0  0
   16.3626   17.4148   34.0271 H   0  0  0  0  0  0
   18.2162   16.2278   34.9110 H   0  0  0  0  0  0
   19.2904   16.3737   33.5910 H   0  0  0  0  0  0
   16.6630   14.8898   35.6065 H   0  0  0  0  0  0
   15.1844   13.2800   36.5771 H   0  0  0  0  0  0
   19.2700   11.7218   34.2812 H   0  0  0  0  0  0
   13.8806   11.6207   35.8136 H   0  0  0  0  0  0
   13.2220    9.4584   37.7116 H   0  0  0  0  0  0
   10.9130   10.2800   37.4526 H   0  0  0  0  0  0
   11.3511   11.2769   36.1029 H   0  0  0  0  0  0
   11.3934    7.6113   35.2688 H   0  0  0  0  0  0
   11.0055   12.6905   38.0041 H   0  0  0  0  0  0
   12.7007   12.7703   37.6450 H   0  0  0  0  0  0
   13.9751   11.2185   38.8149 H   0  0  0  0  0  0
   11.5205   16.3918   29.3309 H   0  0  0  0  0  0
   11.5498   18.1292   29.6029 H   0  0  0  0  0  0
   12.5974   17.4272   28.3854 H   0  0  0  0  0  0
   20.8188   13.4280   34.3875 H   0  0  0  0  0  0
   20.0541   13.4291   32.7897 H   0  0  0  0  0  0
   20.8416   14.8706   33.3769 H   0  0  0  0  0  0
  1  2  1  0  0  0
  1  4  1  0  0  0
  1 35  1  0  0  0
  2 32  1  0  0  0
  2  3  2  0  0  0
  3  7  1  0  0  0
  4  6  1  0  0  0
  4  5  2  0  0  0
  6 11  1  0  0  0
  6  7  2  0  0  0
  7  8  1  0  0  0
  8  9  2  0  0  0
  8 36  1  0  0  0
  9 10  1  0  0  0
  9 37  1  0  0  0
 10 11  2  0  0  0
 10 12  1  0  0  0
 11 38  1  0  0  0
 12 13  1  0  0  0
 12 39  1  0  0  0
 12 40  1  0  0  0
 13 14  1  0  0  0
 13 34  1  0  0  0
 14 19  1  0  0  0
 14 15  2  0  0  0
 15 16  1  0  0  0
 15 41  1  0  0  0
 16 17  2  0  0  0
 16 42  1  0  0  0
 17 18  1  0  0  0
 17 20  1  0  0  0
 18 19  2  0  0  0
 18 33  1  0  0  0
 19 43  1  0  0  0
 20 21  2  0  0  0
 20 22  1  0  0  0
 22 23  1  0  0  0
 22 44  1  0  0  0
 23 24  1  0  0  0
 23 25  1  0  0  0
 23 45  1  0  0  0
 24 28  1  0  0  0
 24 46  1  0  0  0
 24 47  1  0  0  0
 25 26  1  0  0  0
 25 27  2  0  0  0
 26 48  1  0  0  0
 28 29  1  0  0  0
 28 49  1  0  0  0
 28 50  1  0  0  0
 29 30  1  0  0  0
 29 31  2  0  0  0
 30 51  1  0  0  0
 32 52  1  0  0  0
 32 53  1  0  0  0
 32 54  1  0  0  0
 34 55  1  0  0  0
 34 56  1  0  0  0
 34 57  1  0  0  0
M  END
> <s_m_entry_id>
41110

> <s_m_entry_name>
dock_pv.227

> <s_m_Source_Path>
/home/csk/Desktop/cluster/DUD-E-result/tysy

> <s_m_Source_File>
dock_pv.maegz

> <i_m_Source_File_Index>
227

> <chembl_id>
CHEMBL307914

> <chembl_pref_name>
None

> <i_lp_mmshare_version>
53161

> <r_lp_tautomer_probability>
0.883938

> <s_lp_Force_Field>
OPLS_2005

> <r_lp_Energy>
26.480389

> <b_lp_Chiralities_Consistent>
1

> <s_lp_Variant>
CHEMBL1952_lig213-1

> <s_i_glide_gridfile>
glide-grid_1syn

> <i_i_glide_lignum>
422

> <i_i_glide_rotatable_bonds>
12

> <r_i_docking_score>
-7.967066868047

> <r_i_glide_ligand_efficiency>
-0.234325496119029

> <r_i_glide_ligand_efficiency_sa>
-0.759123641675094

> <r_i_glide_ligand_efficiency_ln>
-1.76014853980784

> <r_i_glide_gscore>
-7.967066868047

> <r_i_glide_lipo>
-3.26025158276239

> <r_i_glide_hbond>
-0.317269221210562

> <r_i_glide_metal>
0

> <r_i_glide_rewards>
-0.833991050767884

> <r_i_glide_evdw>
-50.520393371582

> <r_i_glide_ecoul>
-12.8720960617065

> <r_i_glide_erotb>
0.912923702520933

> <r_i_glide_esite>
-0.0116446379920089

> <r_i_glide_emodel>
-92.7252875229611

> <r_i_glide_energy>
-63.3924894332886

> <r_i_glide_einternal>
4.04247808456421

> <i_i_glide_confnum>
86

> <i_i_glide_posenum>
392

> <r_i_glide_eff_state_penalty>
0

> <s_user_duplicate_titles>
CHEMBL1952_lig213,CHEMBL1952_lig213,120469

> <i_f3d_flags>
0

> <s_m_subgroup_title>
dock_pv

> <s_m_subgroupid>
dock_pv

> <b_m_subgroup_collapsed>
1

$$$$
CHEMBL1952_lig119
                    3D
 Schrodinger Suite 2021-1.
 31 33  0  0  1  0            999 V2000
   14.9219   16.9576   31.7561 C   0  0  0  0  0  0
   14.5538   16.5706   30.4387 C   0  0  0  0  0  0
   13.6482   17.1701   29.6662 N   0  0  0  0  0  0
   15.9997   16.0824   32.1515 C   0  0  0  0  0  0
   14.2048   18.0575   32.2870 C   0  0  0  0  0  0
   13.2549   18.6643   31.5359 N   0  0  0  0  0  0
   13.0613   18.2243   30.2744 C   0  0  0  0  0  0
   15.3194   15.4865   30.0928 N   0  0  0  0  0  0
   16.1923   15.1837   31.1085 C   0  0  0  0  0  0
   16.9952   16.1796   33.5909 S   0  0  0  0  0  0
   14.5193   18.4903   33.5459 O   0  0  0  0  0  0
   12.1919   18.9610   29.5004 N   0  0  0  0  0  0
   16.1222   15.1463   34.7259 C   0  0  0  0  0  0
   14.8160   13.5689   36.5967 C   0  0  0  0  0  0
   17.1750   14.0487   30.9485 C   0  0  0  0  0  0
   14.1784   12.7986   37.5069 F   0  0  0  0  0  0
   16.8030   14.0949   35.3405 C   0  0  0  0  0  0
   14.7945   15.4202   35.0554 C   0  0  0  0  0  0
   16.1440   13.3002   36.2754 C   0  0  0  0  0  0
   14.1397   14.6247   35.9897 C   0  0  0  0  0  0
   15.2964   14.9761   29.2232 H   0  0  0  0  0  0
   13.9563   19.2306   33.7997 H   0  0  0  0  0  0
   11.5355   19.5546   29.9905 H   0  0  0  0  0  0
   11.9547   18.6030   28.5903 H   0  0  0  0  0  0
   17.5276   13.6762   31.9105 H   0  0  0  0  0  0
   16.7439   13.1948   30.4242 H   0  0  0  0  0  0
   18.0579   14.3606   30.3914 H   0  0  0  0  0  0
   17.8370   13.8980   35.0979 H   0  0  0  0  0  0
   14.2657   16.2376   34.5936 H   0  0  0  0  0  0
   16.6639   12.4879   36.7616 H   0  0  0  0  0  0
   13.1065   14.8123   36.2359 H   0  0  0  0  0  0
  1  2  1  0  0  0
  1  4  1  0  0  0
  1  5  2  0  0  0
  2  3  2  0  0  0
  2  8  1  0  0  0
  3  7  1  0  0  0
  4  9  2  0  0  0
  4 10  1  0  0  0
  5  6  1  0  0  0
  5 11  1  0  0  0
  6  7  2  0  0  0
  7 12  1  0  0  0
  8  9  1  0  0  0
  8 21  1  0  0  0
  9 15  1  0  0  0
 10 13  1  0  0  0
 11 22  1  0  0  0
 12 23  1  0  0  0
 12 24  1  0  0  0
 13 17  1  0  0  0
 13 18  2  0  0  0
 14 20  2  0  0  0
 14 16  1  0  0  0
 14 19  1  0  0  0
 15 25  1  0  0  0
 15 26  1  0  0  0
 15 27  1  0  0  0
 17 19  2  0  0  0
 17 28  1  0  0  0
 18 20  1  0  0  0
 18 29  1  0  0  0
 19 30  1  0  0  0
 20 31  1  0  0  0
M  END
> <s_m_entry_id>
41111

> <s_m_entry_name>
dock_pv.228

> <s_m_Source_Path>
/home/csk/Desktop/cluster/DUD-E-result/tysy

> <s_m_Source_File>
dock_pv.maegz

> <i_m_Source_File_Index>
228

> <chembl_id>
CHEMBL370639

> <chembl_pref_name>
None

> <i_lp_mmshare_version>
53161

> <r_lp_tautomer_probability>
1

> <s_lp_Force_Field>
OPLS_2005

> <r_lp_Energy>
1.045113

> <b_lp_Chiralities_Consistent>
1

> <s_lp_Variant>
CHEMBL1952_lig119-1

> <s_i_glide_gridfile>
glide-grid_1syn

> <i_i_glide_lignum>
296

> <i_i_glide_rotatable_bonds>
3

> <r_i_docking_score>
-7.963885666899

> <r_i_glide_ligand_efficiency>
-0.39819428334495

> <r_i_glide_ligand_efficiency_sa>
-1.08086557645959

> <r_i_glide_ligand_efficiency_ln>
-1.99309791589604

> <r_i_glide_gscore>
-7.963885666899

> <r_i_glide_lipo>
-3.2425973898977

> <r_i_glide_hbond>
-0.234889828947868

> <r_i_glide_metal>
0

> <r_i_glide_rewards>
-2.28261750590871

> <r_i_glide_evdw>
-38.8456115722656

> <r_i_glide_ecoul>
-4.31905746459961

> <r_i_glide_erotb>
0.43242025976629

> <r_i_glide_esite>
-0.046062003607777

> <r_i_glide_emodel>
-65.2984764342954

> <r_i_glide_energy>
-43.1646690368652

> <r_i_glide_einternal>
1.20213913917542

> <i_i_glide_confnum>
7

> <i_i_glide_posenum>
78

> <r_i_glide_eff_state_penalty>
0

> <s_user_duplicate_titles>
CHEMBL1952_lig119

> <i_f3d_flags>
0

> <s_m_subgroup_title>
dock_pv

> <s_m_subgroupid>
dock_pv

> <b_m_subgroup_collapsed>
1

$$$$
CHEMBL1952_lig118
                    3D
 Schrodinger Suite 2021-1.
 31 33  0  0  1  0            999 V2000
   14.9074   16.9346   31.7712 C   0  0  0  0  0  0
   14.5479   16.5515   30.4517 C   0  0  0  0  0  0
   13.6442   17.1513   29.6777 N   0  0  0  0  0  0
   15.9960   16.0775   32.1642 C   0  0  0  0  0  0
   14.1791   18.0204   32.3101 C   0  0  0  0  0  0
   13.2385   18.6365   31.5533 N   0  0  0  0  0  0
   13.0544   18.2036   30.2868 C   0  0  0  0  0  0
   15.3207   15.4714   30.1079 N   0  0  0  0  0  0
   16.1963   15.1773   31.1248 C   0  0  0  0  0  0
   16.9992   16.2276   33.5902 S   0  0  0  0  0  0
   14.4662   18.4202   33.5862 O   0  0  0  0  0  0
   16.3070   15.0163   34.6696 C   0  0  0  0  0  0
   14.9921   15.1249   35.1308 C   0  0  0  0  0  0
   12.1917   18.9432   29.5077 N   0  0  0  0  0  0
   14.4757   14.1530   35.9910 C   0  0  0  0  0  0
   17.1950   14.0564   30.9644 C   0  0  0  0  0  0
   13.1943   14.2281   36.4138 F   0  0  0  0  0  0
   16.5909   12.9861   35.9537 C   0  0  0  0  0  0
   17.1088   13.9544   35.0936 C   0  0  0  0  0  0
   15.2734   13.0846   36.3992 C   0  0  0  0  0  0
   15.3032   14.9613   29.2380 H   0  0  0  0  0  0
   13.9074   19.1638   33.8403 H   0  0  0  0  0  0
   14.3697   15.9497   34.8173 H   0  0  0  0  0  0
   11.5317   19.5383   29.9902 H   0  0  0  0  0  0
   11.9653   18.5883   28.5940 H   0  0  0  0  0  0
   17.5642   13.6987   31.9259 H   0  0  0  0  0  0
   16.7713   13.1914   30.4527 H   0  0  0  0  0  0
   18.0663   14.3764   30.3935 H   0  0  0  0  0  0
   17.2126   12.1644   36.2775 H   0  0  0  0  0  0
   18.1304   13.8743   34.7496 H   0  0  0  0  0  0
   14.8696   12.3358   37.0637 H   0  0  0  0  0  0
  1  2  1  0  0  0
  1  4  1  0  0  0
  1  5  2  0  0  0
  2  3  2  0  0  0
  2  8  1  0  0  0
  3  7  1  0  0  0
  4  9  2  0  0  0
  4 10  1  0  0  0
  5  6  1  0  0  0
  5 11  1  0  0  0
  6  7  2  0  0  0
  7 14  1  0  0  0
  8  9  1  0  0  0
  8 21  1  0  0  0
  9 16  1  0  0  0
 10 12  1  0  0  0
 11 22  1  0  0  0
 12 13  2  0  0  0
 12 19  1  0  0  0
 13 15  1  0  0  0
 13 23  1  0  0  0
 14 24  1  0  0  0
 14 25  1  0  0  0
 15 17  1  0  0  0
 15 20  2  0  0  0
 16 26  1  0  0  0
 16 27  1  0  0  0
 16 28  1  0  0  0
 18 19  2  0  0  0
 18 20  1  0  0  0
 18 29  1  0  0  0
 19 30  1  0  0  0
 20 31  1  0  0  0
M  END
> <s_m_entry_id>
41112

> <s_m_entry_name>
dock_pv.229

> <s_m_Source_Path>
/home/csk/Desktop/cluster/DUD-E-result/tysy

> <s_m_Source_File>
dock_pv.maegz

> <i_m_Source_File_Index>
229

> <chembl_id>
CHEMBL381413

> <chembl_pref_name>
None

> <i_lp_mmshare_version>
53161

> <r_lp_tautomer_probability>
1

> <s_lp_Force_Field>
OPLS_2005

> <r_lp_Energy>
2.518758

> <b_lp_Chiralities_Consistent>
1

> <s_lp_Variant>
CHEMBL1952_lig118-1

> <s_i_glide_gridfile>
glide-grid_1syn

> <i_i_glide_lignum>
295

> <i_i_glide_rotatable_bonds>
3

> <r_i_docking_score>
-7.96244484924636

> <r_i_glide_ligand_efficiency>
-0.398122242462318

> <r_i_glide_ligand_efficiency_sa>
-1.08067002741885

> <r_i_glide_ligand_efficiency_ln>
-1.99273732675893

> <r_i_glide_gscore>
-7.96244484924636

> <r_i_glide_lipo>
-3.18222867152825

> <r_i_glide_hbond>
-0.236965888349267

> <r_i_glide_metal>
0

> <r_i_glide_rewards>
-2.29896836314203

> <r_i_glide_evdw>
-39.5191192626953

> <r_i_glide_ecoul>
-4.36729383468628

> <r_i_glide_erotb>
0.43242025976629

> <r_i_glide_esite>
-0.0456521476553965

> <r_i_glide_emodel>
-65.746447591514

> <r_i_glide_energy>
-43.8864130973816

> <r_i_glide_einternal>
1.36019289493561

> <i_i_glide_confnum>
11

> <i_i_glide_posenum>
96

> <r_i_glide_eff_state_penalty>
0

> <s_user_duplicate_titles>
CHEMBL1952_lig118

> <i_f3d_flags>
0

> <s_m_subgroup_title>
dock_pv

> <s_m_subgroupid>
dock_pv

> <b_m_subgroup_collapsed>
1

$$$$
CHEMBL1952_lig461
                    3D
 Schrodinger Suite 2021-1.
 37 41  0  0  1  0            999 V2000
   18.2724   15.4280   35.0090 O   0  0  0  0  0  0
   18.6257   14.2776   34.1808 S   0  0  0  0  0  0
   20.0414   13.9620   33.9843 O   0  0  0  0  0  0
   15.3755   16.0443   30.3715 C   0  0  0  0  0  0
   13.6957   17.8166   30.8485 C   0  0  0  0  0  0
   14.0471   17.0278   28.5925 C   0  0  0  0  0  0
   13.3634   18.5987   33.1277 O   0  0  0  0  0  0
   16.0488   16.0126   33.0968 C   0  0  0  0  0  0
   16.4131   15.2076   30.8528 C   0  0  0  0  0  0
   12.1916   19.5922   31.5469 O   0  0  0  0  0  0
   15.0273   16.8669   32.6676 C   0  0  0  0  0  0
   14.5407   17.8271   34.8194 O   0  0  0  0  0  0
   14.3139   17.7679   33.6193 C   0  0  0  0  0  0
   16.7810   15.2208   32.2010 C   0  0  0  0  0  0
   13.3954   17.8669   29.4880 C   0  0  0  0  0  0
   13.0188   18.7263   31.8262 C   0  0  0  0  0  0
   14.7015   16.8944   31.2860 C   0  0  0  0  0  0
   15.0032   16.1054   29.0143 C   0  0  0  0  0  0
   17.9227   14.4739   32.5555 N   0  0  0  0  0  0
   17.8444   12.8185   34.8712 C   0  0  0  0  0  0
   16.7087   10.4052   35.8977 C   0  0  0  0  0  0
   17.9140   10.3997   35.1915 C   0  0  0  0  0  0
   18.4668   11.5780   34.6919 C   0  0  0  0  0  0
   16.0741   11.6392   36.0931 C   0  0  0  0  0  0
   16.6309   12.8348   35.5913 C   0  0  0  0  0  0
   15.9036   13.9462   35.8542 N   0  0  0  0  0  0
   14.5829   13.4139   36.7243 S   0  0  0  0  0  0
   14.9070   11.7748   36.7625 N   0  0  0  0  0  0
   13.7923   17.0841   27.5441 H   0  0  0  0  0  0
   16.2738   16.0117   34.1480 H   0  0  0  0  0  0
   16.9526   14.5907   30.1465 H   0  0  0  0  0  0
   12.6572   18.5630   29.1119 H   0  0  0  0  0  0
   15.4919   15.4586   28.2981 H   0  0  0  0  0  0
   18.4281   14.0015   31.8191 H   0  0  0  0  0  0
   16.2809    9.4891   36.2760 H   0  0  0  0  0  0
   18.4352    9.4697   35.0183 H   0  0  0  0  0  0
   19.3921   11.5200   34.1344 H   0  0  0  0  0  0
  1  2  2  0  0  0
  2  3  2  0  0  0
  2 19  1  0  0  0
  2 20  1  0  0  0
  4  9  1  0  0  0
  4 18  2  0  0  0
  4 17  1  0  0  0
  5 17  2  0  0  0
  5 15  1  0  0  0
  5 16  1  0  0  0
  6 15  2  0  0  0
  6 18  1  0  0  0
  6 29  1  0  0  0
  7 16  1  0  0  0
  7 13  1  0  0  0
  8 11  2  0  0  0
  8 14  1  0  0  0
  8 30  1  0  0  0
  9 14  2  0  0  0
  9 31  1  0  0  0
 10 16  2  0  0  0
 11 13  1  0  0  0
 11 17  1  0  0  0
 12 13  2  0  0  0
 14 19  1  0  0  0
 15 32  1  0  0  0
 18 33  1  0  0  0
 19 34  1  0  0  0
 20 25  1  0  0  0
 20 23  2  0  0  0
 21 24  1  0  0  0
 21 22  2  0  0  0
 21 35  1  0  0  0
 22 23  1  0  0  0
 22 36  1  0  0  0
 23 37  1  0  0  0
 24 25  1  0  0  0
 24 28  2  0  0  0
 25 26  2  0  0  0
 26 27  1  0  0  0
 27 28  1  0  0  0
M  END
> <s_m_entry_id>
41114

> <s_m_entry_name>
dock_pv.231

> <s_m_Source_Path>
/home/csk/Desktop/cluster/DUD-E-result/tysy

> <s_m_Source_File>
dock_pv.maegz

> <i_m_Source_File_Index>
231

> <chembl_id>
CHEMBL2323397

> <chembl_pref_name>
None

> <i_lp_mmshare_version>
53161

> <r_lp_tautomer_probability>
1

> <s_lp_Force_Field>
OPLS_2005

> <r_lp_Energy>
39.062038

> <b_lp_Chiralities_Consistent>
1

> <s_lp_Variant>
CHEMBL1952_lig461-1

> <s_i_glide_gridfile>
glide-grid_1syn

> <i_i_glide_lignum>
891

> <i_i_glide_rotatable_bonds>
3

> <r_i_docking_score>
-7.95933441624946

> <r_i_glide_ligand_efficiency>
-0.284261943437481

> <r_i_glide_ligand_efficiency_sa>
-0.863186681607426

> <r_i_glide_ligand_efficiency_ln>
-1.83724807948357

> <r_i_glide_gscore>
-7.95933441624946

> <r_i_glide_lipo>
-3.88698315045938

> <r_i_glide_hbond>
0

> <r_i_glide_metal>
0

> <r_i_glide_rewards>
-1.55954617652714

> <r_i_glide_evdw>
-55.8799285888672

> <r_i_glide_ecoul>
0.212401553988457

> <r_i_glide_erotb>
0.349331107082147

> <r_i_glide_esite>
-0.1

> <r_i_glide_emodel>
-82.9280031257644

> <r_i_glide_energy>
-55.6675270348787

> <r_i_glide_einternal>
3.16356301307678

> <i_i_glide_confnum>
12

> <i_i_glide_posenum>
96

> <r_i_glide_eff_state_penalty>
0

> <s_user_duplicate_titles>
CHEMBL1952_lig461

> <i_f3d_flags>
0

> <s_m_subgroup_title>
dock_pv

> <s_m_subgroupid>
dock_pv

> <b_m_subgroup_collapsed>
1

$$$$
CHEMBL1952_lig44
                    3D
 Schrodinger Suite 2021-1.
 28 30  0  0  1  0            999 V2000
   14.6187   17.1515   32.1726 C   0  0  0  0  0  0
   14.4318   18.0644   33.3090 C   0  0  0  0  0  0
   13.7907   17.3425   31.0974 C   0  0  0  0  0  0
   15.6874   16.0952   32.1292 C   0  0  0  0  0  0
   12.8817   18.3639   31.0164 N   0  0  0  0  0  0
   13.5177   19.0279   33.1127 N   0  0  0  0  0  0
   12.7781   19.1930   31.9912 C   0  0  0  0  0  0
   16.0242   15.5133   30.8866 C   0  0  0  0  0  0
   14.9965   18.0379   34.3910 O   0  0  0  0  0  0
   16.3468   15.6289   33.2822 C   0  0  0  0  0  0
   13.8998   16.4566   29.8601 C   0  0  0  0  0  0
   15.3611   16.0268   29.6114 C   0  0  0  0  0  0
   16.9925   14.5061   30.8340 C   0  0  0  0  0  0
   17.3257   14.6411   33.2079 C   0  0  0  0  0  0
   17.6520   14.0786   31.9810 C   0  0  0  0  0  0
   18.1901   14.0391   34.7907 Br  0  0  0  0  0  0
   11.8291   20.3652   31.9571 C   0  0  0  0  0  0
   13.3921   19.6703   33.8921 H   0  0  0  0  0  0
   16.1099   16.0017   34.2640 H   0  0  0  0  0  0
   13.5072   16.9671   28.9788 H   0  0  0  0  0  0
   13.2662   15.5839   30.0188 H   0  0  0  0  0  0
   15.4068   15.2819   28.8152 H   0  0  0  0  0  0
   15.9274   16.8889   29.2586 H   0  0  0  0  0  0
   17.2511   14.0584   29.8885 H   0  0  0  0  0  0
   18.4094   13.3093   31.9192 H   0  0  0  0  0  0
   11.4265   20.5290   30.9575 H   0  0  0  0  0  0
   10.9921   20.2023   32.6330 H   0  0  0  0  0  0
   12.3340   21.2828   32.2587 H   0  0  0  0  0  0
  1  2  1  0  0  0
  1  4  1  0  0  0
  1  3  2  0  0  0
  2  9  2  0  0  0
  2  6  1  0  0  0
  3 11  1  0  0  0
  3  5  1  0  0  0
  4  8  2  0  0  0
  4 10  1  0  0  0
  5  7  2  0  0  0
  6  7  1  0  0  0
  6 18  1  0  0  0
  7 17  1  0  0  0
  8 12  1  0  0  0
  8 13  1  0  0  0
 10 14  2  0  0  0
 10 19  1  0  0  0
 11 12  1  0  0  0
 11 20  1  0  0  0
 11 21  1  0  0  0
 12 22  1  0  0  0
 12 23  1  0  0  0
 13 15  2  0  0  0
 13 24  1  0  0  0
 14 15  1  0  0  0
 14 16  1  0  0  0
 15 25  1  0  0  0
 17 26  1  0  0  0
 17 27  1  0  0  0
 17 28  1  0  0  0
M  END
> <s_m_entry_id>
41115

> <s_m_entry_name>
dock_pv.232

> <s_m_Source_Path>
/home/csk/Desktop/cluster/DUD-E-result/tysy

> <s_m_Source_File>
dock_pv.maegz

> <i_m_Source_File_Index>
232

> <chembl_id>
CHEMBL74253

> <chembl_pref_name>
None

> <i_lp_mmshare_version>
53161

> <r_lp_tautomer_probability>
0.839158042097895

> <s_lp_Force_Field>
OPLS_2005

> <r_lp_Energy>
20.583675

> <b_lp_Chiralities_Consistent>
1

> <s_lp_Variant>
CHEMBL1952_lig44-1

> <s_i_glide_gridfile>
glide-grid_1syn

> <i_i_glide_lignum>
61

> <i_i_glide_rotatable_bonds>
0

> <r_i_docking_score>
-7.95842335547933

> <r_i_glide_ligand_efficiency>
-0.468142550322313

> <r_i_glide_ligand_efficiency_sa>
-1.20372632031076

> <r_i_glide_ligand_efficiency_ln>
-2.07617542806994

> <r_i_glide_gscore>
-7.95842335547933

> <r_i_glide_lipo>
-3.28100129935632

> <r_i_glide_hbond>
-0.16

> <r_i_glide_metal>
0

> <r_i_glide_rewards>
-1.9515266539379

> <r_i_glide_evdw>
-38.2417907714844

> <r_i_glide_ecoul>
-4.19243192672729

> <r_i_glide_erotb>
0

> <r_i_glide_esite>
-0.0249410746017926

> <r_i_glide_emodel>
-63.5095147844079

> <r_i_glide_energy>
-42.4342226982117

> <r_i_glide_einternal>
0

> <i_i_glide_confnum>
1

> <i_i_glide_posenum>
228

> <r_i_glide_eff_state_penalty>
0

> <s_user_duplicate_titles>
CHEMBL1952_lig44,CHEMBL1952_lig44

> <i_f3d_flags>
0

> <s_m_subgroup_title>
dock_pv

> <s_m_subgroupid>
dock_pv

> <b_m_subgroup_collapsed>
1

$$$$
CHEMBL1952_lig144
                    3D
 Schrodinger Suite 2021-1.
 33 35  0  0  1  0            999 V2000
   15.9850   16.1932   32.1124 N   0  0  0  0  0  0
   13.6386   18.9111   32.8540 N   0  0  0  0  0  0
   12.8589   18.8022   31.7273 C   0  0  0  0  0  0
   13.0930   17.8794   30.8546 N   0  0  0  0  0  0
   14.7212   18.1589   33.2103 C   0  0  0  0  0  0
   11.8068   19.7247   31.5907 N   0  0  0  0  0  0
   15.3248   18.3809   34.2485 O   0  0  0  0  0  0
   14.9842   17.1431   32.1959 C   0  0  0  0  0  0
   14.1585   17.0488   31.0784 C   0  0  0  0  0  0
   14.6541   15.9941   30.3140 C   0  0  0  0  0  0
   15.7751   15.4644   30.9486 C   0  0  0  0  0  0
   16.6781   14.3198   30.5301 C   0  0  0  0  0  0
   17.0913   15.9975   33.0605 C   0  0  0  0  0  0
   16.8539   14.9075   34.1000 C   0  0  0  0  0  0
   17.6843   13.7806   34.1400 C   0  0  0  0  0  0
   17.4699   12.7850   35.0964 C   0  0  0  0  0  0
   16.4235   12.9105   36.0098 C   0  0  0  0  0  0
   15.6042   14.0367   35.9854 C   0  0  0  0  0  0
   15.8141   15.0283   35.0300 C   0  0  0  0  0  0
   14.1999   14.2229   37.2589 Br  0  0  0  0  0  0
   18.6011   11.2554   35.1627 Br  0  0  0  0  0  0
   13.3929   19.6271   33.5270 H   0  0  0  0  0  0
   11.0951   19.6074   30.8749 H   0  0  0  0  0  0
   11.5324   20.3263   32.3511 H   0  0  0  0  0  0
   14.2379   15.6530   29.3800 H   0  0  0  0  0  0
   16.3412   13.8527   29.6045 H   0  0  0  0  0  0
   17.7065   14.6429   30.3647 H   0  0  0  0  0  0
   16.7116   13.5334   31.2824 H   0  0  0  0  0  0
   17.9963   15.7916   32.4870 H   0  0  0  0  0  0
   17.2953   16.9329   33.5791 H   0  0  0  0  0  0
   18.4954   13.6672   33.4330 H   0  0  0  0  0  0
   16.2626   12.1452   36.7527 H   0  0  0  0  0  0
   15.1703   15.8961   35.0229 H   0  0  0  0  0  0
  1 11  1  0  0  0
  1  8  1  0  0  0
  1 13  1  0  0  0
  2  3  1  0  0  0
  2  5  1  0  0  0
  2 22  1  0  0  0
  3  6  1  0  0  0
  3  4  2  0  0  0
  4  9  1  0  0  0
  5  7  2  0  0  0
  5  8  1  0  0  0
  6 23  1  0  0  0
  6 24  1  0  0  0
  8  9  2  0  0  0
  9 10  1  0  0  0
 10 11  2  0  0  0
 10 25  1  0  0  0
 11 12  1  0  0  0
 12 26  1  0  0  0
 12 27  1  0  0  0
 12 28  1  0  0  0
 13 14  1  0  0  0
 13 29  1  0  0  0
 13 30  1  0  0  0
 14 15  2  0  0  0
 14 19  1  0  0  0
 15 16  1  0  0  0
 15 31  1  0  0  0
 16 17  2  0  0  0
 16 21  1  0  0  0
 17 18  1  0  0  0
 17 32  1  0  0  0
 18 19  2  0  0  0
 18 20  1  0  0  0
 19 33  1  0  0  0
M  END
> <s_m_entry_id>
41116

> <s_m_entry_name>
dock_pv.233

> <s_m_Source_Path>
/home/csk/Desktop/cluster/DUD-E-result/tysy

> <s_m_Source_File>
dock_pv.maegz

> <i_m_Source_File_Index>
233

> <chembl_id>
CHEMBL253796

> <chembl_pref_name>
None

> <i_lp_mmshare_version>
53161

> <r_lp_tautomer_probability>
1

> <s_lp_Force_Field>
OPLS_2005

> <r_lp_Energy>
19.527928

> <b_lp_Chiralities_Consistent>
1

> <s_lp_Variant>
CHEMBL1952_lig144-1

> <s_i_glide_gridfile>
glide-grid_1syn

> <i_i_glide_lignum>
321

> <i_i_glide_rotatable_bonds>
2

> <r_i_docking_score>
-7.95826389504345

> <r_i_glide_ligand_efficiency>
-0.378964947383021

> <r_i_glide_ligand_efficiency_sa>
-1.04553555427496

> <r_i_glide_ligand_efficiency_ln>
-1.96766466686311

> <r_i_glide_gscore>
-7.95826389504345

> <r_i_glide_lipo>
-3.30911295752217

> <r_i_glide_hbond>
-0.443490754544733

> <r_i_glide_metal>
0

> <r_i_glide_rewards>
-1.4497520770178

> <r_i_glide_evdw>
-43.1397743225098

> <r_i_glide_ecoul>
-5.54085254669189

> <r_i_glide_erotb>
0.232208492170529

> <r_i_glide_esite>
0

> <r_i_glide_emodel>
-72.427013518

> <r_i_glide_energy>
-48.6806268692017

> <r_i_glide_einternal>
1.75244176387787

> <i_i_glide_confnum>
2

> <i_i_glide_posenum>
4

> <r_i_glide_eff_state_penalty>
0

> <s_user_duplicate_titles>
CHEMBL1952_lig144

> <i_f3d_flags>
0

> <s_m_subgroup_title>
dock_pv

> <s_m_subgroupid>
dock_pv

> <b_m_subgroup_collapsed>
1

$$$$
CHEMBL1952_lig71
                    3D
 Schrodinger Suite 2021-1.
 31 33  0  0  1  0            999 V2000
   16.0465   16.2224   33.0771 C   0  0  0  0  0  0
   15.5797   16.2280   31.7104 C   0  0  0  0  0  0
   17.0782   15.4457   33.4860 N   0  0  0  0  0  0
   17.6247   14.6132   32.5845 C   0  0  0  0  0  0
   17.2332   14.4564   31.3089 N   0  0  0  0  0  0
   16.2189   15.2514   30.8776 C   0  0  0  0  0  0
   14.5780   17.0859   31.1276 C   0  0  0  0  0  0
   15.3898   16.9829   33.9949 O   0  0  0  0  0  0
   14.1936   16.8705   29.7633 C   0  0  0  0  0  0
   13.9624   18.2013   31.7941 C   0  0  0  0  0  0
   15.8198   15.0767   29.5469 C   0  0  0  0  0  0
   18.6804   13.8278   33.0137 N   0  0  0  0  0  0
   14.8289   15.8670   29.0033 C   0  0  0  0  0  0
   13.1975   17.6793   29.1656 C   0  0  0  0  0  0
   12.9930   18.9912   31.1725 C   0  0  0  0  0  0
   12.5930   18.7084   29.8728 C   0  0  0  0  0  0
   12.4487   20.2194   31.8907 C   0  0  0  0  0  0
   11.3584   19.8691   32.8992 C   0  0  0  0  0  0
   14.5575   17.3100   33.6488 H   0  0  0  0  0  0
   14.2651   18.5368   32.7675 H   0  0  0  0  0  0
   16.3022   14.3246   28.9396 H   0  0  0  0  0  0
   19.1601   13.2287   32.3449 H   0  0  0  0  0  0
   19.0382   13.9601   33.9456 H   0  0  0  0  0  0
   14.5758   15.7309   27.9631 H   0  0  0  0  0  0
   12.9254   17.5097   28.1349 H   0  0  0  0  0  0
   11.8465   19.3240   29.3884 H   0  0  0  0  0  0
   12.0647   20.9394   31.1657 H   0  0  0  0  0  0
   13.2692   20.7375   32.3915 H   0  0  0  0  0  0
   10.9904   20.7630   33.4027 H   0  0  0  0  0  0
   11.7231   19.1798   33.6619 H   0  0  0  0  0  0
   10.5239   19.4031   32.3911 H   0  0  0  0  0  0
  1  2  1  0  0  0
  1  3  2  0  0  0
  1  8  1  0  0  0
  2  6  2  0  0  0
  2  7  1  0  0  0
  3  4  1  0  0  0
  4  5  2  0  0  0
  4 12  1  0  0  0
  5  6  1  0  0  0
  6 11  1  0  0  0
  7  9  2  0  0  0
  7 10  1  0  0  0
  8 19  1  0  0  0
  9 13  1  0  0  0
  9 14  1  0  0  0
 10 15  2  0  0  0
 10 20  1  0  0  0
 11 13  2  0  0  0
 11 21  1  0  0  0
 12 22  1  0  0  0
 12 23  1  0  0  0
 13 24  1  0  0  0
 14 16  2  0  0  0
 14 25  1  0  0  0
 15 16  1  0  0  0
 15 17  1  0  0  0
 16 26  1  0  0  0
 17 18  1  0  0  0
 17 27  1  0  0  0
 17 28  1  0  0  0
 18 29  1  0  0  0
 18 30  1  0  0  0
 18 31  1  0  0  0
M  END
> <s_m_entry_id>
41117

> <s_m_entry_name>
dock_pv.234

> <s_m_Source_Path>
/home/csk/Desktop/cluster/DUD-E-result/tysy

> <s_m_Source_File>
dock_pv.maegz

> <i_m_Source_File_Index>
234

> <chembl_id>
CHEMBL307237

> <chembl_pref_name>
None

> <i_lp_mmshare_version>
53161

> <r_lp_tautomer_probability>
1

> <s_lp_Force_Field>
OPLS_2005

> <r_lp_Energy>
12.935692

> <b_lp_Chiralities_Consistent>
1

> <s_lp_Variant>
CHEMBL1952_lig71-1

> <s_i_glide_gridfile>
glide-grid_1syn

> <i_i_glide_lignum>
106

> <i_i_glide_rotatable_bonds>
2

> <r_i_docking_score>
-7.95474370190836

> <r_i_glide_ligand_efficiency>
-0.441930205661576

> <r_i_glide_ligand_efficiency_sa>
-1.15818478221268

> <r_i_glide_ligand_efficiency_ln>
-2.04472585062414

> <r_i_glide_gscore>
-7.95474370190836

> <r_i_glide_lipo>
-3.26239159697359

> <r_i_glide_hbond>
-0.107015886052411

> <r_i_glide_metal>
0

> <r_i_glide_rewards>
-2.16833156999874

> <r_i_glide_evdw>
-37.315673828125

> <r_i_glide_ecoul>
-3.21067047119141

> <r_i_glide_erotb>
0

> <r_i_glide_esite>
-0.0696203867986634

> <r_i_glide_emodel>
-60.6710501569448

> <r_i_glide_energy>
-40.5263442993164

> <r_i_glide_einternal>
0.348308533430099

> <i_i_glide_confnum>
1

> <i_i_glide_posenum>
387

> <r_i_glide_eff_state_penalty>
0

> <s_user_duplicate_titles>
CHEMBL1952_lig71

> <i_f3d_flags>
0

> <s_m_subgroup_title>
dock_pv

> <s_m_subgroupid>
dock_pv

> <b_m_subgroup_collapsed>
1

$$$$
CHEMBL1952_lig184
                    3D
 Schrodinger Suite 2021-1.
 60 62  0  0  1  0            999 V2000
   13.1740   17.9978   31.4417 N   0  0  0  0  0  0
   13.2128   17.2375   30.4187 C   0  0  0  0  0  0
   14.1632   16.2568   30.1971 N   0  0  0  0  0  0
   14.1322   17.9259   32.4561 C   0  0  0  0  0  0
   12.1447   17.4044   29.3731 C   0  0  0  0  0  0
   14.1580   18.6236   33.4656 O   0  0  0  0  0  0
   15.2203   16.8854   32.2511 C   0  0  0  0  0  0
   15.1948   16.0649   31.1190 C   0  0  0  0  0  0
   16.1935   15.1191   30.9112 C   0  0  0  0  0  0
   17.2346   15.0024   31.8368 C   0  0  0  0  0  0
   17.2778   15.8351   32.9672 C   0  0  0  0  0  0
   16.2645   16.7712   33.1689 C   0  0  0  0  0  0
   18.4490   15.8265   33.9501 C   0  0  0  0  0  0
   18.9962   14.4953   34.1639 N   0  0  0  0  0  0
   18.2061   13.4915   34.7916 C   0  0  0  0  0  0
   18.6105   12.1509   34.8184 C   0  0  0  0  0  0
   17.8141   11.1741   35.4122 C   0  0  0  0  0  0
   16.5836   11.5158   35.9864 C   0  0  0  0  0  0
   16.1862   12.8557   35.9906 C   0  0  0  0  0  0
   16.9873   13.8238   35.4054 C   0  0  0  0  0  0
   15.7079   10.4505   36.5895 C   0  0  0  0  0  0
   16.1919    9.4280   37.0699 O   0  0  0  0  0  0
   14.3865   10.6802   36.5381 N   0  0  0  0  0  0
   13.3411    9.7455   36.9650 C   0  0  1  0  0  0
   12.2387   10.5305   37.7334 C   0  0  0  0  0  0
   12.8807    8.8644   35.7750 C   0  0  0  0  0  0
   11.6391    8.3550   35.9910 O   0  0  0  0  0  0
   13.5564    8.6260   34.7935 O   0  0  0  0  0  0
   11.5120   11.6580   36.9621 C   0  0  0  0  0  0
   10.5912   12.4910   37.8616 C   0  0  0  0  0  0
   10.0377   13.5383   37.1917 O   0  0  0  0  0  0
   10.3766   12.2600   39.0503 O   0  0  0  0  0  0
   20.2778   14.2280   33.5090 C   0  0  0  0  0  0
   21.4669   14.0979   34.4711 C   0  0  0  0  0  0
   22.6659   14.2277   33.9007 F   0  0  0  0  0  0
   14.1480   15.6955   29.3630 H   0  0  0  0  0  0
   11.5850   18.3322   29.5074 H   0  0  0  0  0  0
   12.5944   17.4395   28.3861 H   0  0  0  0  0  0
   11.4307   16.5839   29.4097 H   0  0  0  0  0  0
   16.1784   14.4846   30.0377 H   0  0  0  0  0  0
   18.0210   14.2815   31.6592 H   0  0  0  0  0  0
   16.3132   17.4466   34.0066 H   0  0  0  0  0  0
   18.1922   16.2280   34.9194 H   0  0  0  0  0  0
   19.2133   16.5107   33.5913 H   0  0  0  0  0  0
   19.5498   11.8450   34.3868 H   0  0  0  0  0  0
   18.1580   10.1494   35.4053 H   0  0  0  0  0  0
   15.2593   13.1690   36.4493 H   0  0  0  0  0  0
   16.6270   14.8389   35.4415 H   0  0  0  0  0  0
   14.0675   11.5079   36.0609 H   0  0  0  0  0  0
   13.7725    9.0394   37.6775 H   0  0  0  0  0  0
   12.6984   10.9600   38.6256 H   0  0  0  0  0  0
   11.4964    9.8303   38.1211 H   0  0  0  0  0  0
   11.3929    7.8119   35.2306 H   0  0  0  0  0  0
   10.9224   11.2385   36.1461 H   0  0  0  0  0  0
   12.2318   12.3413   36.5121 H   0  0  0  0  0  0
    9.4578   14.0606   37.7512 H   0  0  0  0  0  0
   20.2045   13.4273   32.7912 H   0  0  0  0  0  0
   20.5195   15.0355   32.8208 H   0  0  0  0  0  0
   21.4026   14.8915   35.2085 H   0  0  0  0  0  0
   21.4453   13.1604   35.0258 H   0  0  0  0  0  0
  1  2  2  0  0  0
  1  4  1  0  0  0
  2  3  1  0  0  0
  2  5  1  0  0  0
  3  8  1  0  0  0
  3 36  1  0  0  0
  4  6  2  0  0  0
  4  7  1  0  0  0
  5 37  1  0  0  0
  5 38  1  0  0  0
  5 39  1  0  0  0
  7 12  1  0  0  0
  7  8  2  0  0  0
  8  9  1  0  0  0
  9 10  2  0  0  0
  9 40  1  0  0  0
 10 11  1  0  0  0
 10 41  1  0  0  0
 11 12  2  0  0  0
 11 13  1  0  0  0
 12 42  1  0  0  0
 13 14  1  0  0  0
 13 43  1  0  0  0
 13 44  1  0  0  0
 14 15  1  0  0  0
 14 33  1  0  0  0
 15 20  1  0  0  0
 15 16  2  0  0  0
 16 17  1  0  0  0
 16 45  1  0  0  0
 17 18  2  0  0  0
 17 46  1  0  0  0
 18 19  1  0  0  0
 18 21  1  0  0  0
 19 20  2  0  0  0
 19 47  1  0  0  0
 20 48  1  0  0  0
 21 22  2  0  0  0
 21 23  1  0  0  0
 23 24  1  0  0  0
 23 49  1  0  0  0
 24 25  1  0  0  0
 24 26  1  0  0  0
 24 50  1  0  0  0
 25 29  1  0  0  0
 25 51  1  0  0  0
 25 52  1  0  0  0
 26 27  1  0  0  0
 26 28  2  0  0  0
 27 53  1  0  0  0
 29 30  1  0  0  0
 29 54  1  0  0  0
 29 55  1  0  0  0
 30 31  1  0  0  0
 30 32  2  0  0  0
 31 56  1  0  0  0
 33 34  1  0  0  0
 33 57  1  0  0  0
 33 58  1  0  0  0
 34 35  1  0  0  0
 34 59  1  0  0  0
 34 60  1  0  0  0
M  END
> <s_m_entry_id>
41119

> <s_m_entry_name>
dock_pv.236

> <s_m_Source_Path>
/home/csk/Desktop/cluster/DUD-E-result/tysy

> <s_m_Source_File>
dock_pv.maegz

> <i_m_Source_File_Index>
236

> <chembl_id>
CHEMBL104759

> <chembl_pref_name>
None

> <i_lp_mmshare_version>
53161

> <r_lp_tautomer_probability>
0.116051

> <s_lp_Force_Field>
OPLS_2005

> <r_lp_Energy>
25.37956

> <b_lp_Chiralities_Consistent>
1

> <s_lp_Variant>
CHEMBL1952_lig184-2

> <s_i_glide_gridfile>
glide-grid_1syn

> <i_i_glide_lignum>
366

> <i_i_glide_rotatable_bonds>
14

> <r_i_docking_score>
-7.94848220657834

> <r_i_glide_ligand_efficiency>
-0.227099491616524

> <r_i_glide_ligand_efficiency_sa>
-0.742857495207395

> <r_i_glide_ligand_efficiency_ln>
-1.74486825140196

> <r_i_glide_gscore>
-7.94848220657834

> <r_i_glide_lipo>
-3.32047369952376

> <r_i_glide_hbond>
-0.347290978142137

> <r_i_glide_metal>
0

> <r_i_glide_rewards>
-0.725868127263613

> <r_i_glide_evdw>
-52.1052360534668

> <r_i_glide_ecoul>
-11.9847612380981

> <r_i_glide_erotb>
0.951740035588472

> <r_i_glide_esite>
-0.103613448849236

> <r_i_glide_emodel>
-82.0167241276605

> <r_i_glide_energy>
-64.0899972915649

> <r_i_glide_einternal>
17.0774612426758

> <i_i_glide_confnum>
95

> <i_i_glide_posenum>
164

> <r_i_glide_eff_state_penalty>
0

> <s_user_duplicate_titles>
CHEMBL1952_lig184,CHEMBL1952_lig184,170809

> <i_f3d_flags>
0

> <s_m_subgroup_title>
dock_pv

> <s_m_subgroupid>
dock_pv

> <b_m_subgroup_collapsed>
1

$$$$
CHEMBL1952_lig320 
                    3D
 Schrodinger Suite 2021-1.
 47 50  0  0  1  0            999 V2000
   13.5898   18.2283   31.5180 N   0  0  0  0  0  0
   13.2312   17.8054   30.2525 C   0  0  0  0  0  0
   13.8438   16.8188   29.6853 N   0  0  0  0  0  0
   14.5926   17.7514   32.3203 C   0  0  0  0  0  0
   15.2785   16.6282   31.6740 C   0  0  0  0  0  0
   14.8569   16.2484   30.4004 C   0  0  0  0  0  0
   15.6582   15.2285   29.9701 N   0  0  0  0  0  0
   16.5778   14.9608   30.9576 C   0  0  0  0  0  0
   16.3620   15.8027   32.0518 C   0  0  0  0  0  0
   14.8365   18.2765   33.4016 O   0  0  0  0  0  0
   12.1939   18.4919   29.5940 N   0  0  0  0  0  0
   17.1706   15.8424   33.3388 C   0  0  0  0  0  0
   16.5575   14.9760   34.4334 C   0  0  0  0  0  0
   17.1425   13.7571   34.7900 C   0  0  0  0  0  0
   16.5199   12.9319   35.7260 C   0  0  0  0  0  0
   15.3060   13.3196   36.3171 C   0  0  0  0  0  0
   14.7601   14.5641   35.9880 C   0  0  0  0  0  0
   15.3774   15.3817   35.0554 C   0  0  0  0  0  0
   14.5807   12.4426   37.3084 C   0  0  0  0  0  0
   13.8331   12.9506   38.1490 O   0  0  0  0  0  0
   14.7657   11.1118   37.1578 N   0  0  0  0  0  0
   14.2052   10.0435   37.8965 C   0  0  0  0  0  0
   13.7501   10.2198   39.2141 C   0  0  0  0  0  0
   13.1835    9.1688   39.9270 C   0  0  0  0  0  0
   13.0943    7.9098   39.3452 C   0  0  0  0  0  0
   13.5548    7.7054   38.0465 C   0  0  0  0  0  0
   14.1015    8.7621   37.2969 C   0  0  0  0  0  0
   14.5779    8.4832   35.8881 C   0  0  0  0  0  0
   13.7957    7.6111   35.1917 O   0  0  0  0  0  0
   15.5691    9.0281   35.4077 O   0  0  0  0  0  0
   12.5916    9.4312   41.5272 Cl  0  0  0  0  0  0
   13.1041   19.0209   31.9049 H   0  0  0  0  0  0
   15.5827   14.7690   29.0755 H   0  0  0  0  0  0
   17.3144   14.1845   30.8034 H   0  0  0  0  0  0
   11.8204   18.1173   28.7370 H   0  0  0  0  0  0
   11.4862   18.9738   30.1319 H   0  0  0  0  0  0
   17.2511   16.8629   33.7092 H   0  0  0  0  0  0
   18.2017   15.5296   33.1521 H   0  0  0  0  0  0
   18.0632   13.4328   34.3256 H   0  0  0  0  0  0
   16.9893   11.9883   35.9709 H   0  0  0  0  0  0
   13.8332   14.8970   36.4328 H   0  0  0  0  0  0
   14.9166   16.3241   34.8164 H   0  0  0  0  0  0
   15.2892   10.8263   36.3421 H   0  0  0  0  0  0
   13.8275   11.1733   39.7097 H   0  0  0  0  0  0
   12.6689    7.0869   39.9016 H   0  0  0  0  0  0
   13.4842    6.7049   37.6380 H   0  0  0  0  0  0
   12.9842    7.4050   35.6635 H   0  0  0  0  0  0
  1  2  1  0  0  0
  1  4  1  0  0  0
  1 32  1  0  0  0
  2  3  2  0  0  0
  2 11  1  0  0  0
  3  6  1  0  0  0
  4  5  1  0  0  0
  4 10  2  0  0  0
  5  6  2  0  0  0
  5  9  1  0  0  0
  6  7  1  0  0  0
  7  8  1  0  0  0
  7 33  1  0  0  0
  8  9  2  0  0  0
  8 34  1  0  0  0
  9 12  1  0  0  0
 11 35  1  0  0  0
 11 36  1  0  0  0
 12 13  1  0  0  0
 12 37  1  0  0  0
 12 38  1  0  0  0
 13 14  2  0  0  0
 13 18  1  0  0  0
 14 15  1  0  0  0
 14 39  1  0  0  0
 15 16  2  0  0  0
 15 40  1  0  0  0
 16 17  1  0  0  0
 16 19  1  0  0  0
 17 18  2  0  0  0
 17 41  1  0  0  0
 18 42  1  0  0  0
 19 20  2  0  0  0
 19 21  1  0  0  0
 21 22  1  0  0  0
 21 43  1  0  0  0
 22 23  2  0  0  0
 22 27  1  0  0  0
 23 24  1  0  0  0
 23 44  1  0  0  0
 24 25  2  0  0  0
 24 31  1  0  0  0
 25 26  1  0  0  0
 25 45  1  0  0  0
 26 27  2  0  0  0
 26 46  1  0  0  0
 27 28  1  0  0  0
 28 29  1  0  0  0
 28 30  2  0  0  0
 29 47  1  0  0  0
M  END
> <s_m_entry_id>
41121

> <s_m_entry_name>
dock_pv.238

> <s_m_Source_Path>
/home/csk/Desktop/cluster/DUD-E-result/tysy

> <s_m_Source_File>
dock_pv.maegz

> <i_m_Source_File_Index>
238

> <chembl_id>
CHEMBL4591345

> <chembl_pref_name>
None

> <i_lp_mmshare_version>
53161

> <r_lp_tautomer_probability>
1

> <s_lp_Force_Field>
OPLS_2005

> <r_lp_Energy>
36.106828

> <b_lp_Chiralities_Consistent>
1

> <s_lp_Variant>
CHEMBL1952_lig320 -1

> <s_i_glide_gridfile>
glide-grid_1syn

> <i_i_glide_lignum>
595

> <i_i_glide_rotatable_bonds>
7

> <r_i_docking_score>
-7.94626372721206

> <r_i_glide_ligand_efficiency>
-0.256331087974583

> <r_i_glide_ligand_efficiency_sa>
-0.80523351944807

> <r_i_glide_ligand_efficiency_ln>
-1.79212599422346

> <r_i_glide_gscore>
-7.94626372721206

> <r_i_glide_lipo>
-2.95430101625187

> <r_i_glide_hbond>
-0.187436425196079

> <r_i_glide_metal>
0

> <r_i_glide_rewards>
-1.56318784150623

> <r_i_glide_evdw>
-53.2403755187988

> <r_i_glide_ecoul>
-7.80476331710815

> <r_i_glide_erotb>
0.624247521402425

> <r_i_glide_esite>
-0.0328526921541456

> <r_i_glide_emodel>
-89.0138339354304

> <r_i_glide_energy>
-61.045138835907

> <r_i_glide_einternal>
4.30678701400757

> <i_i_glide_confnum>
64

> <i_i_glide_posenum>
362

> <r_i_glide_eff_state_penalty>
0

> <s_user_duplicate_titles>
CHEMBL1952_lig320 

> <i_f3d_flags>
0

> <s_m_subgroup_title>
dock_pv

> <s_m_subgroupid>
dock_pv

> <b_m_subgroup_collapsed>
1

$$$$
CHEMBL1952_lig120
                    3D
 Schrodinger Suite 2021-1.
 31 33  0  0  1  0            999 V2000
   14.8203   16.9585   31.7475 C   0  0  0  0  0  0
   14.4264   16.5158   30.4562 C   0  0  0  0  0  0
   13.4454   17.0250   29.7138 N   0  0  0  0  0  0
   15.9329   16.1237   32.1416 C   0  0  0  0  0  0
   14.0752   18.0455   32.2677 C   0  0  0  0  0  0
   13.0552   18.5708   31.5429 N   0  0  0  0  0  0
   12.8088   18.0502   30.3204 C   0  0  0  0  0  0
   15.2499   15.4788   30.0993 N   0  0  0  0  0  0
   16.1605   15.2360   31.0975 C   0  0  0  0  0  0
   16.9146   16.2281   33.5910 S   0  0  0  0  0  0
   14.4215   18.5348   33.4976 O   0  0  0  0  0  0
   11.7921   18.6277   29.5910 N   0  0  0  0  0  0
   16.0326   15.1867   34.7153 C   0  0  0  0  0  0
   14.7073   13.5896   36.5584 C   0  0  0  0  0  0
   17.1967   14.1504   30.9316 C   0  0  0  0  0  0
   13.7919   12.4987   37.8208 Br  0  0  0  0  0  0
   14.6894   15.4286   35.0041 C   0  0  0  0  0  0
   16.7176   14.1538   35.3550 C   0  0  0  0  0  0
   14.0260   14.6270   35.9269 C   0  0  0  0  0  0
   16.0503   13.3481   36.2746 C   0  0  0  0  0  0
   15.2290   14.9514   29.2396 H   0  0  0  0  0  0
   13.8386   19.2586   33.7557 H   0  0  0  0  0  0
   11.5949   18.2670   28.6745 H   0  0  0  0  0  0
   11.1434   19.2704   30.0350 H   0  0  0  0  0  0
   17.5550   13.7802   31.8926 H   0  0  0  0  0  0
   16.8125   13.2843   30.3915 H   0  0  0  0  0  0
   18.0709   14.5116   30.3909 H   0  0  0  0  0  0
   14.1568   16.2312   34.5212 H   0  0  0  0  0  0
   17.7620   13.9770   35.1413 H   0  0  0  0  0  0
   12.9813   14.7978   36.1384 H   0  0  0  0  0  0
   16.5777   12.5497   36.7760 H   0  0  0  0  0  0
  1  2  1  0  0  0
  1  4  1  0  0  0
  1  5  2  0  0  0
  2  3  2  0  0  0
  2  8  1  0  0  0
  3  7  1  0  0  0
  4  9  2  0  0  0
  4 10  1  0  0  0
  5  6  1  0  0  0
  5 11  1  0  0  0
  6  7  2  0  0  0
  7 12  1  0  0  0
  8  9  1  0  0  0
  8 21  1  0  0  0
  9 15  1  0  0  0
 10 13  1  0  0  0
 11 22  1  0  0  0
 12 23  1  0  0  0
 12 24  1  0  0  0
 13 17  1  0  0  0
 13 18  2  0  0  0
 14 20  2  0  0  0
 14 16  1  0  0  0
 14 19  1  0  0  0
 15 25  1  0  0  0
 15 26  1  0  0  0
 15 27  1  0  0  0
 17 19  2  0  0  0
 17 28  1  0  0  0
 18 20  1  0  0  0
 18 29  1  0  0  0
 19 30  1  0  0  0
 20 31  1  0  0  0
M  END
> <s_m_entry_id>
41122

> <s_m_entry_name>
dock_pv.239

> <s_m_Source_Path>
/home/csk/Desktop/cluster/DUD-E-result/tysy

> <s_m_Source_File>
dock_pv.maegz

> <i_m_Source_File_Index>
239

> <chembl_id>
CHEMBL195782

> <chembl_pref_name>
None

> <i_lp_mmshare_version>
53161

> <r_lp_tautomer_probability>
1

> <s_lp_Force_Field>
OPLS_2005

> <r_lp_Energy>
0.948742

> <b_lp_Chiralities_Consistent>
1

> <s_lp_Variant>
CHEMBL1952_lig120-1

> <s_i_glide_gridfile>
glide-grid_1syn

> <i_i_glide_lignum>
297

> <i_i_glide_rotatable_bonds>
3

> <r_i_docking_score>
-7.93760013703043

> <r_i_glide_ligand_efficiency>
-0.396880006851521

> <r_i_glide_ligand_efficiency_sa>
-1.07729808119631

> <r_i_glide_ligand_efficiency_ln>
-1.98651951472473

> <r_i_glide_gscore>
-7.93760013703043

> <r_i_glide_lipo>
-3.3482343858583

> <r_i_glide_hbond>
-0.348851704035432

> <r_i_glide_metal>
0

> <r_i_glide_rewards>
-1.6576718000786

> <r_i_glide_evdw>
-38.700366973877

> <r_i_glide_ecoul>
-5.95026016235352

> <r_i_glide_erotb>
0.309188046174423

> <r_i_glide_esite>
-0.0644729201856478

> <r_i_glide_emodel>
-67.0215328040565

> <r_i_glide_energy>
-44.6506271362305

> <r_i_glide_einternal>
1.47774565219879

> <i_i_glide_confnum>
10

> <i_i_glide_posenum>
134

> <r_i_glide_eff_state_penalty>
0

> <s_user_duplicate_titles>
CHEMBL1952_lig120,325334

> <i_f3d_flags>
0

> <s_m_subgroup_title>
dock_pv

> <s_m_subgroupid>
dock_pv

> <b_m_subgroup_collapsed>
1

$$$$
CHEMBL1952_lig247
                    3D
 Schrodinger Suite 2021-1.
 57 59  0  0  1  0            999 V2000
   16.2795   11.7333   36.2285 C   0  0  0  0  0  0
   15.2547   11.4068   37.1914 C   0  0  0  0  0  0
   15.0817   10.2460   37.5653 O   0  0  0  0  0  0
   14.5852   12.4614   37.6992 N   0  0  0  0  0  0
   13.6430   12.4531   38.8338 C   0  0  1  0  0  0
   13.3647   13.9243   39.2793 C   0  0  0  0  0  0
   12.3470   11.6374   38.6173 C   0  0  0  0  0  0
   11.9543   11.6770   37.3105 O   0  0  0  0  0  0
   11.7687   11.0701   39.5205 O   0  0  0  0  0  0
   13.5595   14.2101   40.7916 C   0  0  0  0  0  0
   12.2620   14.2858   41.6028 C   0  0  0  0  0  0
   12.1919   15.3993   42.3909 O   0  0  0  0  0  0
   11.3920   13.4258   41.5908 O   0  0  0  0  0  0
   13.7198   18.2271   32.5615 N   0  0  0  0  0  0
   13.3927   18.2245   31.2336 C   0  0  0  0  0  0
   13.9704   17.4280   30.4091 N   0  0  0  0  0  0
   14.6144   17.4223   33.1831 C   0  0  0  0  0  0
   14.8133   17.5044   34.3907 O   0  0  0  0  0  0
   15.2972   16.4683   32.2304 C   0  0  0  0  0  0
   14.9474   16.5329   30.8788 C   0  0  0  0  0  0
   15.5698   15.6855   29.9660 C   0  0  0  0  0  0
   16.5304   14.7712   30.4082 C   0  0  0  0  0  0
   16.8746   14.6854   31.7649 C   0  0  0  0  0  0
   16.2476   15.5476   32.6787 C   0  0  0  0  0  0
   17.8713   13.5958   32.1874 C   0  0  0  0  0  0
   18.3150   13.6235   33.5892 N   0  0  0  0  0  0
   12.3288   19.1921   30.7694 C   0  0  0  0  0  0
   17.7694   12.7941   34.5376 C   0  0  0  0  0  0
   16.4994   13.3450   35.5896 S   0  0  0  0  0  0
   17.2392   10.8649   35.7066 C   0  0  0  0  0  0
   18.1043   11.4722   34.7909 C   0  0  0  0  0  0
   19.4914   14.4289   33.9057 C   0  0  0  0  0  0
   19.1752   15.6723   34.7409 C   0  0  0  0  0  0
   18.5916   16.6278   34.0243 F   0  0  0  0  0  0
   14.8251   13.3713   37.3323 H   0  0  0  0  0  0
   14.1907   11.9329   39.6210 H   0  0  0  0  0  0
   12.3614   14.2279   38.9729 H   0  0  0  0  0  0
   14.0106   14.6200   38.7386 H   0  0  0  0  0  0
   12.6022   12.1360   36.7720 H   0  0  0  0  0  0
   14.0763   15.1647   40.8906 H   0  0  0  0  0  0
   14.2174   13.4752   41.2547 H   0  0  0  0  0  0
   11.4031   15.4272   42.9545 H   0  0  0  0  0  0
   13.2747   18.8929   33.1748 H   0  0  0  0  0  0
   15.2991   15.7300   28.9221 H   0  0  0  0  0  0
   16.9913   14.1062   29.6921 H   0  0  0  0  0  0
   16.4826   15.4996   33.7307 H   0  0  0  0  0  0
   18.7384   13.6318   31.5272 H   0  0  0  0  0  0
   17.4055   12.6301   31.9861 H   0  0  0  0  0  0
   11.3951   19.0295   31.3080 H   0  0  0  0  0  0
   12.6379   20.2221   30.9379 H   0  0  0  0  0  0
   12.1138   19.0805   29.7064 H   0  0  0  0  0  0
   17.3166    9.8269   35.9872 H   0  0  0  0  0  0
   18.9003   10.9528   34.2749 H   0  0  0  0  0  0
   20.2859   13.8198   34.3399 H   0  0  0  0  0  0
   19.9149   14.7870   32.9656 H   0  0  0  0  0  0
   18.5063   15.4438   35.5686 H   0  0  0  0  0  0
   20.0749   16.0817   35.1910 H   0  0  0  0  0  0
  1  2  1  0  0  0
  1 29  1  0  0  0
  1 30  2  0  0  0
  2  3  2  0  0  0
  2  4  1  0  0  0
  4  5  1  0  0  0
  4 35  1  0  0  0
  5  6  1  0  0  0
  5  7  1  0  0  0
  5 36  1  0  0  0
  6 10  1  0  0  0
  6 37  1  0  0  0
  6 38  1  0  0  0
  7  9  2  0  0  0
  7  8  1  0  0  0
  8 39  1  0  0  0
 10 11  1  0  0  0
 10 40  1  0  0  0
 10 41  1  0  0  0
 11 12  1  0  0  0
 11 13  2  0  0  0
 12 42  1  0  0  0
 14 15  1  0  0  0
 14 17  1  0  0  0
 14 43  1  0  0  0
 15 27  1  0  0  0
 15 16  2  0  0  0
 16 20  1  0  0  0
 17 19  1  0  0  0
 17 18  2  0  0  0
 19 20  2  0  0  0
 19 24  1  0  0  0
 20 21  1  0  0  0
 21 22  2  0  0  0
 21 44  1  0  0  0
 22 23  1  0  0  0
 22 45  1  0  0  0
 23 24  2  0  0  0
 23 25  1  0  0  0
 24 46  1  0  0  0
 25 26  1  0  0  0
 25 47  1  0  0  0
 25 48  1  0  0  0
 26 28  1  0  0  0
 26 32  1  0  0  0
 27 49  1  0  0  0
 27 50  1  0  0  0
 27 51  1  0  0  0
 28 29  1  0  0  0
 28 31  2  0  0  0
 30 31  1  0  0  0
 30 52  1  0  0  0
 31 53  1  0  0  0
 32 33  1  0  0  0
 32 54  1  0  0  0
 32 55  1  0  0  0
 33 34  1  0  0  0
 33 56  1  0  0  0
 33 57  1  0  0  0
M  END
> <s_m_entry_id>
41126

> <s_m_entry_name>
dock_pv.243

> <s_m_Source_Path>
/home/csk/Desktop/cluster/DUD-E-result/tysy

> <s_m_Source_File>
dock_pv.maegz

> <i_m_Source_File_Index>
243

> <chembl_id>
CHEMBL1096899

> <chembl_pref_name>
None

> <i_lp_mmshare_version>
53161

> <r_lp_tautomer_probability>
0.883938

> <s_lp_Force_Field>
OPLS_2005

> <r_lp_Energy>
18.548776

> <b_lp_Chiralities_Consistent>
1

> <s_lp_Variant>
CHEMBL1952_lig247-1

> <s_i_glide_gridfile>
glide-grid_1syn

> <i_i_glide_lignum>
490

> <i_i_glide_rotatable_bonds>
14

> <r_i_docking_score>
-7.91570747513845

> <r_i_glide_ligand_efficiency>
-0.232814925739366

> <r_i_glide_ligand_efficiency_sa>
-0.754229980052229

> <r_i_glide_ligand_efficiency_ln>
-1.74880180933217

> <r_i_glide_gscore>
-7.91570747513845

> <r_i_glide_lipo>
-3.06716678703651

> <r_i_glide_hbond>
-0.16

> <r_i_glide_metal>
0

> <r_i_glide_rewards>
-0.68273521079673

> <r_i_glide_evdw>
-54.4956474304199

> <r_i_glide_ecoul>
-14.415994644165

> <r_i_glide_erotb>
0.930445075553607

> <r_i_glide_esite>
-0.0490689847130622

> <r_i_glide_emodel>
-94.1516614127527

> <r_i_glide_energy>
-68.911642074585

> <r_i_glide_einternal>
18.2515182495117

> <i_i_glide_confnum>
43

> <i_i_glide_posenum>
242

> <r_i_glide_eff_state_penalty>
0

> <s_user_duplicate_titles>
CHEMBL1952_lig247,CHEMBL1952_lig247,624994

> <i_f3d_flags>
0

> <s_m_subgroup_title>
dock_pv

> <s_m_subgroupid>
dock_pv

> <b_m_subgroup_collapsed>
1

$$$$
CHEMBL1952_lig414
                    3D
 Schrodinger Suite 2021-1.
 51 55  0  0  1  0            999 V2000
   14.7833   15.9061   29.5282 N   0  0  0  0  0  0
   13.8881   16.7878   30.0356 C   0  0  0  0  0  0
   15.6624   15.4426   30.5041 C   0  0  0  0  0  0
   14.2336   10.1407   37.4988 S   0  0  0  0  0  0
   15.3246   16.0468   31.6837 C   0  0  0  0  0  0
   14.2530   16.8782   31.4860 C   0  0  0  0  0  0
   15.9687   15.8314   32.9129 C   0  0  0  0  0  0
   17.1055   14.9544   32.9042 C   0  0  0  0  0  0
   17.8946   14.7909   34.0683 N   0  0  0  0  0  0
   16.7220   14.5444   30.4984 C   0  0  0  0  0  0
   15.4572   11.1048   36.6233 C   0  0  0  0  0  0
   17.4431   14.3188   31.6838 C   0  0  0  0  0  0
   14.5454    8.7210   37.2889 O   0  0  0  0  0  0
   14.1309   10.6969   38.8534 O   0  0  0  0  0  0
   12.7015   10.5080   36.6450 C   0  0  0  0  0  0
   12.9897   17.3553   29.4215 O   0  0  0  0  0  0
   18.3517   13.4438   34.4391 C   0  0  0  0  0  0
   15.3918   12.4963   36.6843 C   0  0  0  0  0  0
   16.4591   10.4773   35.8811 C   0  0  0  0  0  0
   17.3097   12.6388   35.2137 C   0  0  0  0  0  0
   13.7374   17.5854   32.5720 C   0  0  0  0  0  0
   15.3924   16.5100   34.0245 C   0  0  0  0  0  0
   16.3167   13.2603   35.9835 C   0  0  0  0  0  0
   17.3923   11.2452   35.1911 C   0  0  0  0  0  0
   18.9162   15.8244   34.1849 C   0  0  0  0  0  0
   14.3051   17.3853   33.8408 C   0  0  0  0  0  0
   11.9411   11.6151   37.0316 C   0  0  0  0  0  0
   12.2925    9.7109   35.5740 C   0  0  0  0  0  0
   11.1313   10.0343   34.8765 C   0  0  0  0  0  0
   10.7769   11.9331   36.3368 C   0  0  0  0  0  0
   10.3792   11.1425   35.2600 C   0  0  0  0  0  0
   14.7916   15.6257   28.5593 H   0  0  0  0  0  0
   16.9917   14.0295   29.5906 H   0  0  0  0  0  0
   18.2961   13.6578   31.6300 H   0  0  0  0  0  0
   18.6487   12.8751   33.5579 H   0  0  0  0  0  0
   19.2510   13.5025   35.0532 H   0  0  0  0  0  0
   14.6308   12.9865   37.2731 H   0  0  0  0  0  0
   16.5174    9.4016   35.8317 H   0  0  0  0  0  0
   12.9021   18.2619   32.4556 H   0  0  0  0  0  0
   15.7918   16.3219   35.0089 H   0  0  0  0  0  0
   16.2631   14.3361   36.0508 H   0  0  0  0  0  0
   18.1692   10.7553   34.6203 H   0  0  0  0  0  0
   18.5129   16.8197   33.9957 H   0  0  0  0  0  0
   19.3436   15.8297   35.1879 H   0  0  0  0  0  0
   19.7211   15.6406   33.4732 H   0  0  0  0  0  0
   13.8910   17.9094   34.6908 H   0  0  0  0  0  0
   12.2557   12.2345   37.8589 H   0  0  0  0  0  0
   12.8763    8.8539   35.2694 H   0  0  0  0  0  0
   10.8182    9.4299   34.0367 H   0  0  0  0  0  0
   10.1884   12.7919   36.6243 H   0  0  0  0  0  0
    9.4804   11.3923   34.7146 H   0  0  0  0  0  0
  1  3  1  0  0  0
  1  2  1  0  0  0
  1 32  1  0  0  0
  2  6  1  0  0  0
  2 16  2  0  0  0
  3  5  1  0  0  0
  3 10  2  0  0  0
  4 11  1  0  0  0
  4 13  2  0  0  0
  4 14  2  0  0  0
  4 15  1  0  0  0
  5  7  1  0  0  0
  5  6  2  0  0  0
  6 21  1  0  0  0
  7 22  2  0  0  0
  7  8  1  0  0  0
  8 12  2  0  0  0
  8  9  1  0  0  0
  9 17  1  0  0  0
  9 25  1  0  0  0
 10 12  1  0  0  0
 10 33  1  0  0  0
 11 19  1  0  0  0
 11 18  2  0  0  0
 12 34  1  0  0  0
 15 27  2  0  0  0
 15 28  1  0  0  0
 17 20  1  0  0  0
 17 35  1  0  0  0
 17 36  1  0  0  0
 18 23  1  0  0  0
 18 37  1  0  0  0
 19 24  2  0  0  0
 19 38  1  0  0  0
 20 23  2  0  0  0
 20 24  1  0  0  0
 21 26  2  0  0  0
 21 39  1  0  0  0
 22 26  1  0  0  0
 22 40  1  0  0  0
 23 41  1  0  0  0
 24 42  1  0  0  0
 25 43  1  0  0  0
 25 44  1  0  0  0
 25 45  1  0  0  0
 26 46  1  0  0  0
 27 30  1  0  0  0
 27 47  1  0  0  0
 28 29  2  0  0  0
 28 48  1  0  0  0
 29 31  1  0  0  0
 29 49  1  0  0  0
 30 31  2  0  0  0
 30 50  1  0  0  0
 31 51  1  0  0  0
M  END
> <s_m_entry_id>
41127

> <s_m_entry_name>
dock_pv.244

> <s_m_Source_Path>
/home/csk/Desktop/cluster/DUD-E-result/tysy

> <s_m_Source_File>
dock_pv.maegz

> <i_m_Source_File_Index>
244

> <chembl_id>
CHEMBL301844

> <chembl_pref_name>
None

> <i_lp_mmshare_version>
53161

> <r_lp_tautomer_probability>
1

> <s_lp_Force_Field>
OPLS_2005

> <r_lp_Energy>
63.883381

> <b_lp_Chiralities_Consistent>
1

> <s_lp_Variant>
CHEMBL1952_lig414-1

> <s_i_glide_gridfile>
glide-grid_1syn

> <i_i_glide_lignum>
808

> <i_i_glide_rotatable_bonds>
5

> <r_i_docking_score>
-7.90980527014152

> <r_i_glide_ligand_efficiency>
-0.255155008714242

> <r_i_glide_ligand_efficiency_sa>
-0.801539006818187

> <r_i_glide_ligand_efficiency_ln>
-1.78390349483653

> <r_i_glide_gscore>
-7.90980527014152

> <r_i_glide_lipo>
-4.19037162043357

> <r_i_glide_hbond>
0

> <r_i_glide_metal>
0

> <r_i_glide_rewards>
-1.22526690732665

> <r_i_glide_evdw>
-52.1684989929199

> <r_i_glide_ecoul>
-2.84441256523132

> <r_i_glide_erotb>
0.540920092049394

> <r_i_glide_esite>
0

> <r_i_glide_emodel>
-76.4612800883049

> <r_i_glide_energy>
-55.0129115581512

> <r_i_glide_einternal>
8.24447727203369

> <i_i_glide_confnum>
43

> <i_i_glide_posenum>
271

> <r_i_glide_eff_state_penalty>
0

> <s_user_duplicate_titles>
CHEMBL1952_lig414,89723

> <i_f3d_flags>
0

> <s_m_subgroup_title>
dock_pv

> <s_m_subgroupid>
dock_pv

> <b_m_subgroup_collapsed>
1

$$$$
CHEMBL1952_lig19
                    3D
 Schrodinger Suite 2021-1.
 31 33  0  0  1  0            999 V2000
   14.7879   16.9605   31.7817 C   0  0  0  0  0  0
   14.3715   16.4866   30.5115 C   0  0  0  0  0  0
   13.3893   16.9836   29.7651 N   0  0  0  0  0  0
   15.9260   16.1606   32.1729 C   0  0  0  0  0  0
   14.0390   18.0480   32.2957 C   0  0  0  0  0  0
   13.0240   18.5722   31.5628 N   0  0  0  0  0  0
   12.7758   18.0345   30.3481 C   0  0  0  0  0  0
   15.1740   15.4309   30.1778 N   0  0  0  0  0  0
   16.1190   15.2264   31.1520 C   0  0  0  0  0  0
   16.9320   16.4415   33.5910 S   0  0  0  0  0  0
   14.3774   18.5350   33.5290 O   0  0  0  0  0  0
   11.7920   18.6280   29.5911 N   0  0  0  0  0  0
   17.2039   14.8306   34.2466 C   0  0  0  0  0  0
   17.5922   12.2611   35.1902 C   0  0  0  0  0  0
   17.1264   14.1216   30.9525 C   0  0  0  0  0  0
   17.7857   10.6246   35.6845 Cl  0  0  0  0  0  0
   18.3559   14.1321   33.8870 C   0  0  0  0  0  0
   16.2884   14.2861   35.1481 C   0  0  0  0  0  0
   16.4817   12.9888   35.6157 C   0  0  0  0  0  0
   18.5385   12.8326   34.3448 C   0  0  0  0  0  0
   15.1258   14.8715   29.3398 H   0  0  0  0  0  0
   13.7943   19.2580   33.7877 H   0  0  0  0  0  0
   11.5861   18.2384   28.6888 H   0  0  0  0  0  0
   11.1430   19.2787   30.0225 H   0  0  0  0  0  0
   17.0118   13.3352   31.6973 H   0  0  0  0  0  0
   17.0176   13.6264   29.9896 H   0  0  0  0  0  0
   18.1513   14.4886   31.0084 H   0  0  0  0  0  0
   19.0813   14.5707   33.2162 H   0  0  0  0  0  0
   15.4178   14.8499   35.4504 H   0  0  0  0  0  0
   15.7608   12.5433   36.2849 H   0  0  0  0  0  0
   19.3924   12.2598   34.0151 H   0  0  0  0  0  0
  1  2  1  0  0  0
  1  4  1  0  0  0
  1  5  2  0  0  0
  2  3  2  0  0  0
  2  8  1  0  0  0
  3  7  1  0  0  0
  4  9  2  0  0  0
  4 10  1  0  0  0
  5  6  1  0  0  0
  5 11  1  0  0  0
  6  7  2  0  0  0
  7 12  1  0  0  0
  8  9  1  0  0  0
  8 21  1  0  0  0
  9 15  1  0  0  0
 10 13  1  0  0  0
 11 22  1  0  0  0
 12 23  1  0  0  0
 12 24  1  0  0  0
 13 17  1  0  0  0
 13 18  2  0  0  0
 14 19  2  0  0  0
 14 16  1  0  0  0
 14 20  1  0  0  0
 15 25  1  0  0  0
 15 26  1  0  0  0
 15 27  1  0  0  0
 17 20  2  0  0  0
 17 28  1  0  0  0
 18 19  1  0  0  0
 18 29  1  0  0  0
 19 30  1  0  0  0
 20 31  1  0  0  0
M  END
> <s_m_entry_id>
41128

> <s_m_entry_name>
dock_pv.245

> <s_m_Source_Path>
/home/csk/Desktop/cluster/DUD-E-result/tysy

> <s_m_Source_File>
dock_pv.maegz

> <i_m_Source_File_Index>
245

> <chembl_id>
CHEMBL142176

> <chembl_pref_name>
None

> <i_lp_mmshare_version>
53161

> <r_lp_tautomer_probability>
1

> <s_lp_Force_Field>
OPLS_2005

> <r_lp_Energy>
1.69862

> <b_lp_Chiralities_Consistent>
1

> <s_lp_Variant>
CHEMBL1952_lig19-1

> <s_i_glide_gridfile>
glide-grid_1syn

> <i_i_glide_lignum>
21

> <i_i_glide_rotatable_bonds>
3

> <r_i_docking_score>
-7.9094937594812

> <r_i_glide_ligand_efficiency>
-0.39547468797406

> <r_i_glide_ligand_efficiency_sa>
-1.07348345888221

> <r_i_glide_ligand_efficiency_ln>
-1.97948541543453

> <r_i_glide_gscore>
-7.9094937594812

> <r_i_glide_lipo>
-2.86670646089956

> <r_i_glide_hbond>
-0.363674910921539

> <r_i_glide_metal>
0

> <r_i_glide_rewards>
-1.94323697324116

> <r_i_glide_evdw>
-38.9764251708984

> <r_i_glide_ecoul>
-7.43498945236206

> <r_i_glide_erotb>
0.392672918726141

> <r_i_glide_esite>
-0.0644786567458523

> <r_i_glide_emodel>
-67.9451306201701

> <r_i_glide_energy>
-46.4114146232605

> <r_i_glide_einternal>
3.83528065681458

> <i_i_glide_confnum>
10

> <i_i_glide_posenum>
314

> <r_i_glide_eff_state_penalty>
0

> <s_user_duplicate_titles>
CHEMBL1952_lig19

> <i_f3d_flags>
0

> <s_m_subgroup_title>
dock_pv

> <s_m_subgroupid>
dock_pv

> <b_m_subgroup_collapsed>
1

$$$$
CHEMBL1952_lig34
                    3D
 Schrodinger Suite 2021-1.
 30 32  0  0  1  0            999 V2000
   14.8434   17.0488   32.1406 C   0  0  0  0  0  0
   14.3741   17.6864   33.3815 C   0  0  0  0  0  0
   14.1924   17.4127   30.9947 C   0  0  0  0  0  0
   13.5163   18.7053   33.1909 N   0  0  0  0  0  0
   15.9857   16.0811   32.0941 C   0  0  0  0  0  0
   13.1843   18.3361   30.9670 N   0  0  0  0  0  0
   12.9195   19.0165   32.0161 C   0  0  0  0  0  0
   16.2495   15.3648   30.9074 C   0  0  0  0  0  0
   14.5639   16.8581   29.6243 C   0  0  0  0  0  0
   15.4060   15.5522   29.6514 C   0  0  2  0  0  0
   17.3128   14.4560   30.8742 C   0  0  0  0  0  0
   14.6535   17.3770   34.5341 O   0  0  0  0  0  0
   16.8666   15.9036   33.1780 C   0  0  0  0  0  0
   11.9813   20.0574   31.9920 N   0  0  0  0  0  0
   17.9467   15.0281   33.0996 C   0  0  0  0  0  0
   18.1587   14.2824   31.9557 C   0  0  0  0  0  0
   19.0662   14.9007   34.3911 Cl  0  0  0  0  0  0
   14.5635   14.3043   29.3859 C   0  0  0  0  0  0
   15.1227   17.6371   29.1100 H   0  0  0  0  0  0
   13.6641   16.7178   29.0235 H   0  0  0  0  0  0
   16.1060   15.6335   28.8165 H   0  0  0  0  0  0
   17.4880   13.8686   29.9910 H   0  0  0  0  0  0
   13.2625   19.2222   34.0234 H   0  0  0  0  0  0
   16.7609   16.4666   34.0864 H   0  0  0  0  0  0
   11.4646   20.2796   31.1532 H   0  0  0  0  0  0
   11.7914   20.6271   32.8034 H   0  0  0  0  0  0
   18.9908   13.5945   31.8984 H   0  0  0  0  0  0
   15.1440   13.3838   29.4661 H   0  0  0  0  0  0
   13.7185   14.2316   30.0702 H   0  0  0  0  0  0
   14.1615   14.3243   28.3885 H   0  0  0  0  0  0
  1  2  1  0  0  0
  1  5  1  0  0  0
  1  3  2  0  0  0
  2  4  1  0  0  0
  2 12  2  0  0  0
  3  6  1  0  0  0
  3  9  1  0  0  0
  4  7  1  0  0  0
  4 23  1  0  0  0
  5  8  2  0  0  0
  5 13  1  0  0  0
  6  7  2  0  0  0
  7 14  1  0  0  0
  8 10  1  0  0  0
  8 11  1  0  0  0
  9 10  1  0  0  0
  9 19  1  0  0  0
  9 20  1  0  0  0
 10 18  1  0  0  0
 10 21  1  0  0  0
 11 16  2  0  0  0
 11 22  1  0  0  0
 13 15  2  0  0  0
 13 24  1  0  0  0
 14 25  1  0  0  0
 14 26  1  0  0  0
 15 16  1  0  0  0
 15 17  1  0  0  0
 16 27  1  0  0  0
 18 28  1  0  0  0
 18 29  1  0  0  0
 18 30  1  0  0  0
M  END
> <s_m_entry_id>
41129

> <s_m_entry_name>
dock_pv.246

> <s_m_Source_Path>
/home/csk/Desktop/cluster/DUD-E-result/tysy

> <s_m_Source_File>
dock_pv.maegz

> <i_m_Source_File_Index>
246

> <chembl_id>
CHEMBL73487

> <chembl_pref_name>
None

> <i_lp_mmshare_version>
53161

> <r_lp_tautomer_probability>
0.878315377147829

> <s_lp_Force_Field>
OPLS_2005

> <r_lp_Energy>
19.905415

> <b_lp_Chiralities_Consistent>
1

> <s_lp_Variant>
CHEMBL1952_lig34-2

> <s_i_glide_gridfile>
glide-grid_1syn

> <i_i_glide_lignum>
44

> <i_i_glide_rotatable_bonds>
0

> <r_i_docking_score>
-7.90521114051175

> <r_i_glide_ligand_efficiency>
-0.439178396695097

> <r_i_glide_ligand_efficiency_sa>
-1.15097300255222

> <r_i_glide_ligand_efficiency_ln>
-2.03199376112753

> <r_i_glide_gscore>
-7.90521114051175

> <r_i_glide_lipo>
-3.11636270697953

> <r_i_glide_hbond>
-0.26294743383807

> <r_i_glide_metal>
0

> <r_i_glide_rewards>
-1.96626680503291

> <r_i_glide_evdw>
-38.9263725280762

> <r_i_glide_ecoul>
-4.04199028015137

> <r_i_glide_erotb>
0

> <r_i_glide_esite>
-0.00701702623471549

> <r_i_glide_emodel>
-62.2581479255064

> <r_i_glide_energy>
-42.9683628082275

> <r_i_glide_einternal>
0

> <i_i_glide_confnum>
1

> <i_i_glide_posenum>
28

> <r_i_glide_eff_state_penalty>
0

> <s_user_duplicate_titles>
CHEMBL1952_lig34,CHEMBL1952_lig34,CHEMBL1952_lig34

> <i_f3d_flags>
0

> <s_m_subgroup_title>
dock_pv

> <s_m_subgroupid>
dock_pv

> <b_m_subgroup_collapsed>
1

$$$$
CHEMBL1952_lig267
                    3D
 Schrodinger Suite 2021-1.
 55 57  0  0  1  0            999 V2000
   13.3944   18.0501   31.5299 N   0  0  0  0  0  0
   13.5493   17.5488   30.2684 C   0  0  0  0  0  0
   14.4257   16.6453   30.0137 N   0  0  0  0  0  0
   14.1062   17.7209   32.6325 C   0  0  0  0  0  0
   13.8770   18.2254   33.7254 O   0  0  0  0  0  0
   15.1686   16.6905   32.3465 C   0  0  0  0  0  0
   15.2688   16.1912   31.0443 C   0  0  0  0  0  0
   16.2397   15.2363   30.7495 C   0  0  0  0  0  0
   17.1260   14.8128   31.7466 C   0  0  0  0  0  0
   17.0335   15.3320   33.0474 C   0  0  0  0  0  0
   16.0324   16.2586   33.3509 C   0  0  0  0  0  0
   18.0593   14.9558   34.1129 C   0  0  0  0  0  0
   17.9922   13.5397   34.4857 N   0  0  0  0  0  0
   16.9646   13.0308   35.3216 C   0  0  0  0  0  0
   16.8252   11.6593   35.5911 C   0  0  0  0  0  0
   15.8549   11.1488   36.3913 N   0  0  0  0  0  0
   14.9911   12.0374   36.9540 C   0  0  0  0  0  0
   15.0331   13.3856   36.7560 N   0  0  0  0  0  0
   16.0175   13.8563   35.9495 C   0  0  0  0  0  0
   13.9589   11.4748   37.9081 C   0  0  0  0  0  0
   13.9268   10.2719   38.1786 O   0  0  0  0  0  0
   13.1042   12.3579   38.4592 N   0  0  0  0  0  0
   12.0721   12.0388   39.4528 C   0  0  1  0  0  0
   12.7088   11.8519   40.8589 C   0  0  0  0  0  0
   10.9349   13.0803   39.4221 C   0  0  0  0  0  0
   10.3935   13.1527   38.1712 O   0  0  0  0  0  0
   10.5823   13.7240   40.3903 O   0  0  0  0  0  0
   13.5828   13.0307   41.3465 C   0  0  0  0  0  0
   13.8383   12.9728   42.8456 C   0  0  0  0  0  0
   14.5895   11.8923   43.1910 O   0  0  0  0  0  0
   13.3922   13.7898   43.6477 O   0  0  0  0  0  0
   12.6385   18.0788   29.1875 C   0  0  0  0  0  0
   18.9920   12.6376   33.9154 C   0  0  0  0  0  0
   12.6950   18.7564   31.6930 H   0  0  0  0  0  0
   16.3179   14.8423   29.7475 H   0  0  0  0  0  0
   17.8970   14.0934   31.5053 H   0  0  0  0  0  0
   15.9312   16.6567   34.3497 H   0  0  0  0  0  0
   17.9644   15.5825   34.9988 H   0  0  0  0  0  0
   19.0448   15.1920   33.7074 H   0  0  0  0  0  0
   17.4976   10.9282   35.1714 H   0  0  0  0  0  0
   16.0316   14.9271   35.8381 H   0  0  0  0  0  0
   13.1935   13.3306   38.2028 H   0  0  0  0  0  0
   11.6100   11.0892   39.1733 H   0  0  0  0  0  0
   13.3248   10.9506   40.8438 H   0  0  0  0  0  0
   11.9260   11.6345   41.5860 H   0  0  0  0  0  0
   10.8241   12.5650   37.5465 H   0  0  0  0  0  0
   13.1058   13.9860   41.1274 H   0  0  0  0  0  0
   14.5358   13.0305   40.8217 H   0  0  0  0  0  0
   14.7552   11.8425   44.1471 H   0  0  0  0  0  0
   11.6263   17.6921   29.3093 H   0  0  0  0  0  0
   12.5842   19.1677   29.2162 H   0  0  0  0  0  0
   12.9915   17.7969   28.1946 H   0  0  0  0  0  0
   19.4558   12.0248   34.6888 H   0  0  0  0  0  0
   18.5365   11.9647   33.1884 H   0  0  0  0  0  0
   19.7902   13.1796   33.4060 H   0  0  0  0  0  0
  1  2  1  0  0  0
  1  4  1  0  0  0
  1 34  1  0  0  0
  2 32  1  0  0  0
  2  3  2  0  0  0
  3  7  1  0  0  0
  4  6  1  0  0  0
  4  5  2  0  0  0
  6 11  1  0  0  0
  6  7  2  0  0  0
  7  8  1  0  0  0
  8  9  2  0  0  0
  8 35  1  0  0  0
  9 10  1  0  0  0
  9 36  1  0  0  0
 10 11  2  0  0  0
 10 12  1  0  0  0
 11 37  1  0  0  0
 12 13  1  0  0  0
 12 38  1  0  0  0
 12 39  1  0  0  0
 13 14  1  0  0  0
 13 33  1  0  0  0
 14 19  1  0  0  0
 14 15  2  0  0  0
 15 16  1  0  0  0
 15 40  1  0  0  0
 16 17  2  0  0  0
 17 18  1  0  0  0
 17 20  1  0  0  0
 18 19  2  0  0  0
 19 41  1  0  0  0
 20 21  2  0  0  0
 20 22  1  0  0  0
 22 23  1  0  0  0
 22 42  1  0  0  0
 23 24  1  0  0  0
 23 25  1  0  0  0
 23 43  1  0  0  0
 24 28  1  0  0  0
 24 44  1  0  0  0
 24 45  1  0  0  0
 25 26  1  0  0  0
 25 27  2  0  0  0
 26 46  1  0  0  0
 28 29  1  0  0  0
 28 47  1  0  0  0
 28 48  1  0  0  0
 29 30  1  0  0  0
 29 31  2  0  0  0
 30 49  1  0  0  0
 32 50  1  0  0  0
 32 51  1  0  0  0
 32 52  1  0  0  0
 33 53  1  0  0  0
 33 54  1  0  0  0
 33 55  1  0  0  0
M  END
> <s_m_entry_id>
41130

> <s_m_entry_name>
dock_pv.247

> <s_m_Source_Path>
/home/csk/Desktop/cluster/DUD-E-result/tysy

> <s_m_Source_File>
dock_pv.maegz

> <i_m_Source_File_Index>
247

> <chembl_id>
CHEMBL40195

> <chembl_pref_name>
None

> <i_lp_mmshare_version>
53161

> <r_lp_tautomer_probability>
0.883938

> <s_lp_Force_Field>
OPLS_2005

> <r_lp_Energy>
17.138067

> <b_lp_Chiralities_Consistent>
1

> <s_lp_Variant>
CHEMBL1952_lig267-1

> <s_i_glide_gridfile>
glide-grid_1syn

> <i_i_glide_lignum>
530

> <i_i_glide_rotatable_bonds>
12

> <r_i_docking_score>
-7.90160361791965

> <r_i_glide_ligand_efficiency>
-0.239442533876353

> <r_i_glide_ligand_efficiency_sa>
-0.768020146574461

> <r_i_glide_ligand_efficiency_ln>
-1.75727573231138

> <r_i_glide_gscore>
-7.90160361791965

> <r_i_glide_lipo>
-3.08818742353687

> <r_i_glide_hbond>
0

> <r_i_glide_metal>
0

> <r_i_glide_rewards>
-1.17302143757672

> <r_i_glide_evdw>
-58.0051231384277

> <r_i_glide_ecoul>
-11.3146991729736

> <r_i_glide_erotb>
0.972393325174667

> <r_i_glide_esite>
-0.0153270491132959

> <r_i_glide_emodel>
-100.817175007911

> <r_i_glide_energy>
-69.3198223114014

> <r_i_glide_einternal>
5.97918128967285

> <i_i_glide_confnum>
61

> <i_i_glide_posenum>
262

> <r_i_glide_eff_state_penalty>
0

> <s_user_duplicate_titles>
CHEMBL1952_lig267,CHEMBL1952_lig267

> <i_f3d_flags>
0

> <s_m_subgroup_title>
dock_pv

> <s_m_subgroupid>
dock_pv

> <b_m_subgroup_collapsed>
1

$$$$
CHEMBL1952_lig362
                    3D
 Schrodinger Suite 2021-1.
 37 40  0  0  1  0            999 V2000
   13.7712   16.6985   29.3111 N   0  0  0  0  0  0
   13.2247   17.5869   30.0544 C   0  0  0  0  0  0
   14.7607   16.1080   30.0933 C   0  0  0  0  0  0
   14.7866   16.6711   31.3407 C   0  0  0  0  0  0
   15.6751   16.3263   32.3773 C   0  0  0  0  0  0
   16.6243   15.2744   32.0907 C   0  0  0  0  0  0
   13.8225   17.6526   31.3888 C   0  0  0  0  0  0
   17.6005   14.8033   33.0097 N   0  0  0  0  0  0
   16.5915   14.7026   30.7930 C   0  0  0  0  0  0
   15.6787   15.1044   29.8038 C   0  0  0  0  0  0
   17.3028   14.5846   34.4367 C   0  0  0  0  0  0
   16.4066   11.2295   36.0113 N   0  0  0  0  0  0
   17.5099   10.4917   35.8013 N   0  0  0  0  0  0
   12.1910   18.4131   29.6924 N   0  0  0  0  0  0
   17.4288   13.1313   34.9136 C   0  0  0  0  0  0
   15.5339   17.1170   33.5574 C   0  0  0  0  0  0
   13.6920   18.3873   32.5664 C   0  0  0  0  0  0
   16.3643   12.5209   35.5889 C   0  0  0  0  0  0
   18.9307   14.4914   32.4845 C   0  0  0  0  0  0
   14.5540   18.1211   33.6393 C   0  0  0  0  0  0
   18.5889   11.0461   35.1908 C   0  0  0  0  0  0
   18.5910   12.3677   34.7495 C   0  0  0  0  0  0
   17.2801   13.9105   30.5352 H   0  0  0  0  0  0
   15.6952   14.6346   28.8319 H   0  0  0  0  0  0
   16.2786   14.8844   34.6509 H   0  0  0  0  0  0
   17.9425   15.2272   35.0443 H   0  0  0  0  0  0
   11.8074   18.3619   28.7614 H   0  0  0  0  0  0
   11.7452   19.0303   30.3560 H   0  0  0  0  0  0
   16.1917   16.9618   34.3907 H   0  0  0  0  0  0
   12.9573   19.1750   32.6600 H   0  0  0  0  0  0
   15.4424   13.0505   35.7764 H   0  0  0  0  0  0
   19.1520   15.0279   31.5634 H   0  0  0  0  0  0
   19.7093   14.7365   33.2074 H   0  0  0  0  0  0
   18.9948   13.4299   32.2499 H   0  0  0  0  0  0
   14.4636   18.7085   34.5414 H   0  0  0  0  0  0
   19.4578   10.4187   35.0554 H   0  0  0  0  0  0
   19.4814   12.7621   34.2846 H   0  0  0  0  0  0
  1  2  2  0  0  0
  1  3  1  0  0  0
  2  7  1  0  0  0
  2 14  1  0  0  0
  3  4  1  0  0  0
  3 10  2  0  0  0
  4  5  1  0  0  0
  4  7  2  0  0  0
  5 16  2  0  0  0
  5  6  1  0  0  0
  6  9  2  0  0  0
  6  8  1  0  0  0
  7 17  1  0  0  0
  8 11  1  0  0  0
  8 19  1  0  0  0
  9 10  1  0  0  0
  9 23  1  0  0  0
 10 24  1  0  0  0
 11 15  1  0  0  0
 11 25  1  0  0  0
 11 26  1  0  0  0
 12 18  2  0  0  0
 12 13  1  0  0  0
 13 21  2  0  0  0
 14 27  1  0  0  0
 14 28  1  0  0  0
 15 18  1  0  0  0
 15 22  2  0  0  0
 16 20  1  0  0  0
 16 29  1  0  0  0
 17 20  2  0  0  0
 17 30  1  0  0  0
 18 31  1  0  0  0
 19 32  1  0  0  0
 19 33  1  0  0  0
 19 34  1  0  0  0
 20 35  1  0  0  0
 21 22  1  0  0  0
 21 36  1  0  0  0
 22 37  1  0  0  0
M  END
> <s_m_entry_id>
41131

> <s_m_entry_name>
dock_pv.248

> <s_m_Source_Path>
/home/csk/Desktop/cluster/DUD-E-result/tysy

> <s_m_Source_File>
dock_pv.maegz

> <i_m_Source_File_Index>
248

> <chembl_id>
CHEMBL293823

> <chembl_pref_name>
None

> <i_lp_mmshare_version>
53161

> <r_lp_tautomer_probability>
1

> <s_lp_Force_Field>
OPLS_2005

> <r_lp_Energy>
54.19278

> <b_lp_Chiralities_Consistent>
1

> <s_lp_Variant>
CHEMBL1952_lig362-1

> <s_i_glide_gridfile>
glide-grid_1syn

> <i_i_glide_lignum>
721

> <i_i_glide_rotatable_bonds>
3

> <r_i_docking_score>
-7.90083668813154

> <r_i_glide_ligand_efficiency>
-0.359128940369615

> <r_i_glide_ligand_efficiency_sa>
-1.00629341465542

> <r_i_glide_ligand_efficiency_ln>
-1.93125267659977

> <r_i_glide_gscore>
-7.90083668813154

> <r_i_glide_lipo>
-3.43383581128053

> <r_i_glide_hbond>
-0.0154349379087316

> <r_i_glide_metal>
0

> <r_i_glide_rewards>
-2.12974792479024

> <r_i_glide_evdw>
-45.2094421386719

> <r_i_glide_ecoul>
-4.54528474807739

> <r_i_glide_erotb>
0.652475528742058

> <r_i_glide_esite>
-0.0320287237488938

> <r_i_glide_emodel>
-73.1830052470595

> <r_i_glide_energy>
-49.7547268867493

> <r_i_glide_einternal>
3.80629992485046

> <i_i_glide_confnum>
4

> <i_i_glide_posenum>
34

> <r_i_glide_eff_state_penalty>
0

> <s_user_duplicate_titles>
CHEMBL1952_lig362,87485

> <i_f3d_flags>
0

> <s_m_subgroup_title>
dock_pv

> <s_m_subgroupid>
dock_pv

> <b_m_subgroup_collapsed>
1

$$$$
CHEMBL1952_lig81
                    3D
 Schrodinger Suite 2021-1.
 27 29  0  0  1  0            999 V2000
   14.6798   17.1573   32.0267 C   0  0  0  0  0  0
   14.5976   18.1784   33.0766 C   0  0  0  0  0  0
   13.7656   17.2526   31.0142 C   0  0  0  0  0  0
   13.5632   19.0279   32.9533 N   0  0  0  0  0  0
   12.8141   18.2334   30.9509 N   0  0  0  0  0  0
   15.7387   16.0958   31.9934 C   0  0  0  0  0  0
   12.7274   19.0934   31.8949 C   0  0  0  0  0  0
   15.9960   15.4281   30.7768 C   0  0  0  0  0  0
   15.3913   18.3466   33.9911 O   0  0  0  0  0  0
   16.4460   15.6942   33.1405 C   0  0  0  0  0  0
   13.8062   16.2875   29.8338 C   0  0  0  0  0  0
   11.7924   20.1328   31.8638 N   0  0  0  0  0  0
   15.2583   15.8678   29.5167 C   0  0  0  0  0  0
   16.9377   14.3966   30.7409 C   0  0  0  0  0  0
   17.3968   14.6790   33.0791 C   0  0  0  0  0  0
   17.6470   14.0303   31.8777 C   0  0  0  0  0  0
   18.4410   14.1078   34.7909 I   0  0  0  0  0  0
   13.4689   19.7057   33.7035 H   0  0  0  0  0  0
   16.2617   16.1439   34.1018 H   0  0  0  0  0  0
   13.3498   16.7391   28.9516 H   0  0  0  0  0  0
   13.2024   15.4167   30.0886 H   0  0  0  0  0  0
   11.0787   20.1670   31.1458 H   0  0  0  0  0  0
   11.6618   20.7530   32.6472 H   0  0  0  0  0  0
   15.2751   15.0880   28.7540 H   0  0  0  0  0  0
   15.7932   16.7218   29.0995 H   0  0  0  0  0  0
   17.1194   13.8741   29.8165 H   0  0  0  0  0  0
   18.3801   13.2379   31.8302 H   0  0  0  0  0  0
  1  2  1  0  0  0
  1  6  1  0  0  0
  1  3  2  0  0  0
  2  4  1  0  0  0
  2  9  2  0  0  0
  3  5  1  0  0  0
  3 11  1  0  0  0
  4  7  1  0  0  0
  4 18  1  0  0  0
  5  7  2  0  0  0
  6  8  2  0  0  0
  6 10  1  0  0  0
  7 12  1  0  0  0
  8 13  1  0  0  0
  8 14  1  0  0  0
 10 15  2  0  0  0
 10 19  1  0  0  0
 11 13  1  0  0  0
 11 20  1  0  0  0
 11 21  1  0  0  0
 12 22  1  0  0  0
 12 23  1  0  0  0
 13 24  1  0  0  0
 13 25  1  0  0  0
 14 16  2  0  0  0
 14 26  1  0  0  0
 15 16  1  0  0  0
 15 17  1  0  0  0
 16 27  1  0  0  0
M  END
> <s_m_entry_id>
41132

> <s_m_entry_name>
dock_pv.249

> <s_m_Source_Path>
/home/csk/Desktop/cluster/DUD-E-result/tysy

> <s_m_Source_File>
dock_pv.maegz

> <i_m_Source_File_Index>
249

> <chembl_id>
CHEMBL74847

> <chembl_pref_name>
None

> <i_lp_mmshare_version>
53161

> <r_lp_tautomer_probability>
0.878315377147829

> <s_lp_Force_Field>
OPLS_2005

> <r_lp_Energy>
18.738195

> <b_lp_Chiralities_Consistent>
1

> <s_lp_Variant>
CHEMBL1952_lig81-1

> <s_i_glide_gridfile>
glide-grid_1syn

> <i_i_glide_lignum>
127

> <i_i_glide_rotatable_bonds>
0

> <r_i_docking_score>
-7.89470769728167

> <r_i_glide_ligand_efficiency>
-0.464394570428333

> <r_i_glide_ligand_efficiency_sa>
-1.19408920861631

> <r_i_glide_ligand_efficiency_ln>
-2.05955343172412

> <r_i_glide_gscore>
-7.89470769728167

> <r_i_glide_lipo>
-2.96597079807277

> <r_i_glide_hbond>
-0.456

> <r_i_glide_metal>
0

> <r_i_glide_rewards>
-1.6831233427063

> <r_i_glide_evdw>
-37.3649559020996

> <r_i_glide_ecoul>
-6.03527212142944

> <r_i_glide_erotb>
0

> <r_i_glide_esite>
-0.0160749431832003

> <r_i_glide_emodel>
-65.6722969458537

> <r_i_glide_energy>
-43.4002280235291

> <r_i_glide_einternal>
0

> <i_i_glide_confnum>
1

> <i_i_glide_posenum>
158

> <r_i_glide_eff_state_penalty>
0

> <s_user_duplicate_titles>
CHEMBL1952_lig81,CHEMBL1952_lig81,CHEMBL1952_lig81

> <i_f3d_flags>
0

> <s_m_subgroup_title>
dock_pv

> <s_m_subgroupid>
dock_pv

> <b_m_subgroup_collapsed>
1

$$$$
CHEMBL1952_lig125
                    3D
 Schrodinger Suite 2021-1.
 33 35  0  0  1  0            999 V2000
   14.9603   16.7086   31.7840 C   0  0  0  0  0  0
   14.5499   16.2432   30.5062 C   0  0  0  0  0  0
   13.5293   16.7080   29.7851 N   0  0  0  0  0  0
   16.1116   15.9234   32.1614 C   0  0  0  0  0  0
   14.1893   17.7694   32.3159 C   0  0  0  0  0  0
   13.1378   18.2579   31.6094 N   0  0  0  0  0  0
   12.8703   17.7146   30.4012 C   0  0  0  0  0  0
   15.4049   15.2361   30.1375 N   0  0  0  0  0  0
   17.3189   11.3228   35.6635 N   0  3  0  0  0  0
   16.5973   12.6151   35.5912 C   0  0  0  0  0  0
   16.3387   15.0280   31.1241 C   0  0  0  0  0  0
   17.1144   16.1049   33.5910 S   0  0  0  0  0  0
   17.1224   13.6419   34.7903 C   0  0  0  0  0  0
   15.4055   12.8620   36.3063 C   0  0  0  0  0  0
   18.5432   11.3403   35.5907 O   0  5  0  0  0  0
   14.5379   18.2638   33.5425 O   0  0  0  0  0  0
   16.4433   14.8512   34.6358 C   0  0  0  0  0  0
   16.6680   10.2845   35.7423 O   0  0  0  0  0  0
   11.7921   18.2325   29.7131 N   0  0  0  0  0  0
   14.7464   14.0846   36.1642 C   0  0  0  0  0  0
   15.2526   15.0722   35.3226 C   0  0  0  0  0  0
   14.6495   11.5958   37.5196 Br  0  0  0  0  0  0
   17.3902   13.9632   30.9512 C   0  0  0  0  0  0
   15.3795   14.6950   29.2865 H   0  0  0  0  0  0
   18.0477   13.4859   34.2519 H   0  0  0  0  0  0
   13.9553   18.9922   33.7822 H   0  0  0  0  0  0
   11.5929   17.8850   28.7914 H   0  0  0  0  0  0
   11.2091   18.9490   30.1336 H   0  0  0  0  0  0
   13.8339   14.2690   36.7119 H   0  0  0  0  0  0
   14.7301   16.0128   35.2189 H   0  0  0  0  0  0
   17.7809   13.6117   31.9040 H   0  0  0  0  0  0
   17.0091   13.0837   30.4292 H   0  0  0  0  0  0
   18.2453   14.3342   30.3917 H   0  0  0  0  0  0
  1  2  1  0  0  0
  1  4  1  0  0  0
  1  5  2  0  0  0
  2  3  2  0  0  0
  2  8  1  0  0  0
  3  7  1  0  0  0
  4 11  2  0  0  0
  4 12  1  0  0  0
  5  6  1  0  0  0
  5 16  1  0  0  0
  6  7  2  0  0  0
  7 19  1  0  0  0
  8 11  1  0  0  0
  8 24  1  0  0  0
  9 10  1  0  0  0
  9 15  1  0  0  0
  9 18  2  0  0  0
 10 13  1  0  0  0
 10 14  2  0  0  0
 11 23  1  0  0  0
 12 17  1  0  0  0
 13 17  2  0  0  0
 13 25  1  0  0  0
 14 20  1  0  0  0
 14 22  1  0  0  0
 16 26  1  0  0  0
 17 21  1  0  0  0
 19 27  1  0  0  0
 19 28  1  0  0  0
 20 21  2  0  0  0
 20 29  1  0  0  0
 21 30  1  0  0  0
 23 31  1  0  0  0
 23 32  1  0  0  0
 23 33  1  0  0  0
M  CHG  2   9   1  15  -1
M  END
> <s_m_entry_id>
41133

> <s_m_entry_name>
dock_pv.250

> <s_m_Source_Path>
/home/csk/Desktop/cluster/DUD-E-result/tysy

> <s_m_Source_File>
dock_pv.maegz

> <i_m_Source_File_Index>
250

> <chembl_id>
CHEMBL195355

> <chembl_pref_name>
None

> <i_lp_mmshare_version>
53161

> <r_lp_tautomer_probability>
1

> <s_lp_Force_Field>
OPLS_2005

> <r_lp_Energy>
5.837405

> <b_lp_Chiralities_Consistent>
1

> <s_lp_Variant>
CHEMBL1952_lig125-1

> <s_i_glide_gridfile>
glide-grid_1syn

> <i_i_glide_lignum>
302

> <i_i_glide_rotatable_bonds>
4

> <r_i_docking_score>
-7.89109424826038

> <r_i_glide_ligand_efficiency>
-0.34309105427219

> <r_i_glide_ligand_efficiency_sa>
-0.975705319307371

> <r_i_glide_ligand_efficiency_ln>
-1.90813814171602

> <r_i_glide_gscore>
-7.89109424826038

> <r_i_glide_lipo>
-3.01031973907034

> <r_i_glide_hbond>
-0.299135683291595

> <r_i_glide_metal>
0

> <r_i_glide_rewards>
-1.67863803430732

> <r_i_glide_evdw>
-45.0138969421387

> <r_i_glide_ecoul>
-5.69522857666016

> <r_i_glide_erotb>
0.249221225772539

> <r_i_glide_esite>
-0.0472428837577111

> <r_i_glide_emodel>
-75.6346275151795

> <r_i_glide_energy>
-50.7091255187988

> <r_i_glide_einternal>
2.70223879814148

> <i_i_glide_confnum>
9

> <i_i_glide_posenum>
32

> <r_i_glide_eff_state_penalty>
0

> <s_user_duplicate_titles>
CHEMBL1952_lig125,325434

> <i_f3d_flags>
0

> <s_m_subgroup_title>
dock_pv

> <s_m_subgroupid>
dock_pv

> <b_m_subgroup_collapsed>
1

$$$$
CHEMBL1952_lig440
                    3D
 Schrodinger Suite 2021-1.
 43 45  0  0  1  0            999 V2000
   17.1544   11.5376   35.6132 N   0  0  0  0  0  0
   18.4379   11.3267   35.1472 C   0  0  0  0  0  0
   18.9923   12.4173   34.5386 N   0  0  0  0  0  0
   17.0860   13.8018   34.7448 C   0  0  0  0  0  0
   16.4809   10.4224   36.2803 C   0  0  2  0  0  0
   18.5039   13.6791   34.3890 C   0  0  0  0  0  0
   16.5225   12.7398   35.3761 C   0  0  0  0  0  0
   13.0580    6.2642   36.7872 P   0  0  0  0  0  0
   15.9247    9.5334   35.3633 O   0  0  0  0  0  0
   15.3644   10.6646   37.2801 C   0  0  0  0  0  0
   15.1060    8.5876   36.0507 C   0  0  1  0  0  0
   14.8189    9.2530   37.4137 C   0  0  1  0  0  0
   13.8547    8.2896   35.2026 C   0  0  0  0  0  0
   19.0839   10.2825   35.2418 O   0  0  0  0  0  0
   16.2989   15.0284   34.3974 C   0  0  0  0  0  0
   13.3923    6.9509   35.3444 O   0  0  0  0  0  0
   12.0910    5.0319   36.3911 O   0  0  0  0  0  0
   14.4412    5.5057   37.1532 O   0  0  0  0  0  0
   19.2419   14.6036   34.0525 O   0  0  0  0  0  0
   12.5335    7.1660   37.8456 O   0  0  0  0  0  0
   15.3920    8.5513   38.5003 O   0  0  0  0  0  0
   15.2114   15.4280   35.1894 C   0  0  0  0  0  0
   16.5752   15.7682   33.2344 C   0  0  0  0  0  0
   15.8044   16.8737   32.8852 C   0  0  0  0  0  0
   14.4388   16.5345   34.8390 C   0  0  0  0  0  0
   14.7401   17.2575   33.6914 C   0  0  0  0  0  0
   19.9404   12.2806   34.2035 H   0  0  0  0  0  0
   17.2802    9.8891   36.8049 H   0  0  0  0  0  0
   15.4824   12.7347   35.6505 H   0  0  0  0  0  0
   14.5997   11.3235   36.8722 H   0  0  0  0  0  0
   15.7476   11.0604   38.2136 H   0  0  0  0  0  0
   15.7103    7.6819   36.1216 H   0  0  0  0  0  0
   13.7485    9.3414   37.6031 H   0  0  0  0  0  0
   14.1057    8.4106   34.1499 H   0  0  0  0  0  0
   13.0485    8.9981   35.3977 H   0  0  0  0  0  0
   12.5048    4.3653   35.7979 H   0  0  0  0  0  0
   14.6517    4.7633   36.5513 H   0  0  0  0  0  0
   14.9368    7.7053   38.5787 H   0  0  0  0  0  0
   14.9654   14.8943   36.0952 H   0  0  0  0  0  0
   17.3819   15.4810   32.5756 H   0  0  0  0  0  0
   16.0299   17.4269   31.9873 H   0  0  0  0  0  0
   13.6116   16.8402   35.4605 H   0  0  0  0  0  0
   14.1422   18.1175   33.4239 H   0  0  0  0  0  0
  1  2  1  0  0  0
  1  5  1  0  0  0
  1  7  1  0  0  0
  2  3  1  0  0  0
  2 14  2  0  0  0
  3  6  1  0  0  0
  3 27  1  0  0  0
  4  7  2  0  0  0
  4  6  1  0  0  0
  4 15  1  0  0  0
  5  9  1  0  0  0
  5 10  1  0  0  0
  5 28  1  0  0  0
  6 19  2  0  0  0
  7 29  1  0  0  0
  8 16  1  0  0  0
  8 17  1  0  0  0
  8 18  1  0  0  0
  8 20  2  0  0  0
  9 11  1  0  0  0
 10 12  1  0  0  0
 10 30  1  0  0  0
 10 31  1  0  0  0
 11 13  1  0  0  0
 11 12  1  0  0  0
 11 32  1  0  0  0
 12 21  1  0  0  0
 12 33  1  0  0  0
 13 16  1  0  0  0
 13 34  1  0  0  0
 13 35  1  0  0  0
 15 22  1  0  0  0
 15 23  2  0  0  0
 17 36  1  0  0  0
 18 37  1  0  0  0
 21 38  1  0  0  0
 22 25  2  0  0  0
 22 39  1  0  0  0
 23 24  1  0  0  0
 23 40  1  0  0  0
 24 26  2  0  0  0
 24 41  1  0  0  0
 25 26  1  0  0  0
 25 42  1  0  0  0
 26 43  1  0  0  0
M  END
> <s_m_entry_id>
41136

> <s_m_entry_name>
dock_pv.253

> <s_m_Source_Path>
/home/csk/Desktop/cluster/DUD-E-result/tysy

> <s_m_Source_File>
dock_pv.maegz

> <i_m_Source_File_Index>
253

> <chembl_id>
CHEMBL3144186

> <chembl_pref_name>
None

> <i_lp_mmshare_version>
53161

> <r_lp_tautomer_probability>
0.999537046341301

> <s_lp_Force_Field>
OPLS_2005

> <r_lp_Energy>
23.499245

> <b_lp_Chiralities_Consistent>
1

> <s_lp_Variant>
CHEMBL1952_lig440-1

> <s_i_glide_gridfile>
glide-grid_1syn

> <i_i_glide_lignum>
870

> <i_i_glide_rotatable_bonds>
8

> <r_i_docking_score>
-7.8807769630671

> <r_i_glide_ligand_efficiency>
-0.303106806271811

> <r_i_glide_ligand_efficiency_sa>
-0.89795272091255

> <r_i_glide_ligand_efficiency_ln>
-1.85077461083794

> <r_i_glide_gscore>
-7.8807769630671

> <r_i_glide_lipo>
-2.73632062527729

> <r_i_glide_hbond>
-0.467602652150065

> <r_i_glide_metal>
0

> <r_i_glide_rewards>
-1.24132104053971

> <r_i_glide_evdw>
-41.8490943908691

> <r_i_glide_ecoul>
-12.4380283355713

> <r_i_glide_erotb>
0.65825800788926

> <r_i_glide_esite>
-0.13563168311014

> <r_i_glide_emodel>
-73.1237451553121

> <r_i_glide_energy>
-54.2871227264404

> <r_i_glide_einternal>
11.1856651306152

> <i_i_glide_confnum>
372

> <i_i_glide_posenum>
390

> <r_i_glide_eff_state_penalty>
0

> <s_user_duplicate_titles>
CHEMBL1952_lig440

> <i_f3d_flags>
0

> <s_m_subgroup_title>
dock_pv

> <s_m_subgroupid>
dock_pv

> <b_m_subgroup_collapsed>
1

$$$$
CHEMBL1952_lig425
                    3D
 Schrodinger Suite 2021-1.
 29 31  0  0  1  0            999 V2000
   14.1307   17.7549   32.1288 C   0  0  0  0  0  0
   14.8758   16.6694   31.5104 C   0  0  0  0  0  0
   13.1109   18.3745   31.4929 N   0  0  0  0  0  0
   12.8159   17.9704   30.2480 C   0  0  0  0  0  0
   13.4147   16.9843   29.5642 N   0  0  0  0  0  0
   15.9915   15.8946   32.0210 C   0  0  0  0  0  0
   14.4314   16.3365   30.1852 C   0  0  0  0  0  0
   16.6839   16.3392   33.5910 S   0  0  0  0  0  0
   16.5919   14.8876   31.2534 C   0  0  0  0  0  0
   14.4416   18.1882   33.3860 O   0  0  0  0  0  0
   15.0547   15.3095   29.4456 C   0  0  0  0  0  0
   15.0911   13.1839   36.4783 N   0  0  0  0  0  0
   11.7972   18.6278   29.5913 N   0  0  0  0  0  0
   16.1183   14.6045   29.9846 C   0  0  0  0  0  0
   16.0570   15.1077   34.6898 C   0  0  0  0  0  0
   17.9460   13.9692   31.8184 Cl  0  0  0  0  0  0
   16.8806   14.0591   35.1053 C   0  0  0  0  0  0
   14.7567   15.2045   35.1910 C   0  0  0  0  0  0
   14.3140   14.2230   36.0790 C   0  0  0  0  0  0
   16.3571   13.1161   35.9911 C   0  0  0  0  0  0
   13.8617   18.9159   33.6321 H   0  0  0  0  0  0
   14.7031   15.0795   28.4490 H   0  0  0  0  0  0
   11.5701   18.3534   28.6515 H   0  0  0  0  0  0
   11.1795   19.2524   30.0989 H   0  0  0  0  0  0
   16.5894   13.8274   29.4003 H   0  0  0  0  0  0
   17.8960   13.9754   34.7473 H   0  0  0  0  0  0
   14.1068   16.0160   34.9001 H   0  0  0  0  0  0
   13.3133   14.2567   36.4840 H   0  0  0  0  0  0
   16.9627   12.2911   36.3349 H   0  0  0  0  0  0
  1  2  1  0  0  0
  1  3  2  0  0  0
  1 10  1  0  0  0
  2  6  2  0  0  0
  2  7  1  0  0  0
  3  4  1  0  0  0
  4  5  2  0  0  0
  4 13  1  0  0  0
  5  7  1  0  0  0
  6  8  1  0  0  0
  6  9  1  0  0  0
  7 11  2  0  0  0
  8 15  1  0  0  0
  9 16  1  0  0  0
  9 14  2  0  0  0
 10 21  1  0  0  0
 11 14  1  0  0  0
 11 22  1  0  0  0
 12 19  2  0  0  0
 12 20  1  0  0  0
 13 23  1  0  0  0
 13 24  1  0  0  0
 14 25  1  0  0  0
 15 17  1  0  0  0
 15 18  2  0  0  0
 17 20  2  0  0  0
 17 26  1  0  0  0
 18 19  1  0  0  0
 18 27  1  0  0  0
 19 28  1  0  0  0
 20 29  1  0  0  0
M  END
> <s_m_entry_id>
41138

> <s_m_entry_name>
dock_pv.255

> <s_m_Source_Path>
/home/csk/Desktop/cluster/DUD-E-result/tysy

> <s_m_Source_File>
dock_pv.maegz

> <i_m_Source_File_Index>
255

> <chembl_id>
CHEMBL162145

> <chembl_pref_name>
None

> <i_lp_mmshare_version>
53161

> <r_lp_tautomer_probability>
1

> <s_lp_Force_Field>
OPLS_2005

> <r_lp_Energy>
12.82955

> <b_lp_Chiralities_Consistent>
1

> <s_lp_Variant>
CHEMBL1952_lig425-1

> <s_i_glide_gridfile>
glide-grid_1syn

> <i_i_glide_lignum>
824

> <i_i_glide_rotatable_bonds>
3

> <r_i_docking_score>
-7.87885867991642

> <r_i_glide_ligand_efficiency>
-0.393942933995821

> <r_i_glide_ligand_efficiency_sa>
-1.06932563890354

> <r_i_glide_ligand_efficiency_ln>
-1.97181846543202

> <r_i_glide_gscore>
-7.87885867991642

> <r_i_glide_lipo>
-3.65293289756737

> <r_i_glide_hbond>
-0.272238269116115

> <r_i_glide_metal>
0

> <r_i_glide_rewards>
-1.64692673574934

> <r_i_glide_evdw>
-38.9849548339844

> <r_i_glide_ecoul>
-4.60121250152588

> <r_i_glide_erotb>
0.397238989914793

> <r_i_glide_esite>
-0.0645701504702909

> <r_i_glide_emodel>
-63.2922591914955

> <r_i_glide_energy>
-43.5861673355103

> <r_i_glide_einternal>
1.81599771976471

> <i_i_glide_confnum>
1

> <i_i_glide_posenum>
129

> <r_i_glide_eff_state_penalty>
0

> <s_user_duplicate_titles>
CHEMBL1952_lig425,273393

> <i_f3d_flags>
0

> <s_m_subgroup_title>
dock_pv

> <s_m_subgroupid>
dock_pv

> <b_m_subgroup_collapsed>
1

$$$$
CHEMBL1952_lig99
                    3D
 Schrodinger Suite 2021-1.
 32 34  0  0  1  0            999 V2000
   13.5107   17.6835   29.2374 N   0  0  0  0  0  0
   15.2829   16.0562   32.0097 C   0  0  1  0  0  0
   14.5912   17.2612   31.4237 C   0  0  1  0  0  0
   14.0573   16.6595   30.1271 C   0  0  2  0  0  0
   13.4485   18.0451   32.1028 C   0  0  0  0  0  0
   12.7342   18.7293   31.1681 N   0  0  0  0  0  0
   12.8434   18.6292   29.8032 C   0  0  0  0  0  0
   15.1369   15.8295   29.6618 N   0  0  0  0  0  0
   15.7905   15.4275   30.6940 C   0  0  0  0  0  0
   16.5917   16.5015   33.1913 S   0  0  0  0  0  0
   13.2429   18.0814   33.3120 O   0  0  0  0  0  0
   17.3898   12.6938   35.5824 N   0  0  0  0  0  0
   12.1917   19.5930   29.0155 N   0  0  0  0  0  0
   16.9178   15.0415   34.1317 C   0  0  0  0  0  0
   16.9108   14.4153   30.6386 C   0  0  0  0  0  0
   18.0351   14.2518   33.8463 C   0  0  0  0  0  0
   16.0579   14.6712   35.1690 C   0  0  0  0  0  0
   16.3289   13.4928   35.8672 C   0  0  0  0  0  0
   18.2273   13.0824   34.5859 C   0  0  0  0  0  0
   15.3325   18.0352   31.2177 H   0  0  0  0  0  0
   13.2209   15.9700   30.3109 H   0  0  0  0  0  0
   12.0614   19.3794   31.5435 H   0  0  0  0  0  0
   16.9914   13.9899   29.6394 H   0  0  0  0  0  0
   12.2046   19.4202   28.0227 H   0  0  0  0  0  0
   11.2325   19.8049   29.2755 H   0  0  0  0  0  0
   16.7276   13.5917   31.3288 H   0  0  0  0  0  0
   14.5918   15.3950   32.5232 H   0  0  0  0  0  0
   17.8691   14.8731   30.8870 H   0  0  0  0  0  0
   18.7288   14.5234   33.0638 H   0  0  0  0  0  0
   15.2020   15.2782   35.4203 H   0  0  0  0  0  0
   15.6880   13.1738   36.6768 H   0  0  0  0  0  0
   19.0713   12.4369   34.3829 H   0  0  0  0  0  0
  1  4  1  0  0  0
  1  7  2  0  0  0
  2  3  1  0  0  0
  2 10  1  0  0  0
  2 27  1  0  0  0
  2  9  1  0  0  0
  3  4  1  0  0  0
  3  5  1  0  0  0
  3 20  1  0  0  0
  4 21  1  0  0  0
  4  8  1  0  0  0
  5  6  1  0  0  0
  5 11  2  0  0  0
  6  7  1  0  0  0
  6 22  1  0  0  0
  7 13  1  0  0  0
  8  9  2  0  0  0
  9 15  1  0  0  0
 10 14  1  0  0  0
 12 18  1  0  0  0
 12 19  2  0  0  0
 13 24  1  0  0  0
 13 25  1  0  0  0
 14 16  2  0  0  0
 14 17  1  0  0  0
 15 26  1  0  0  0
 15 28  1  0  0  0
 15 23  1  0  0  0
 16 19  1  0  0  0
 16 29  1  0  0  0
 17 18  2  0  0  0
 17 30  1  0  0  0
 18 31  1  0  0  0
 19 32  1  0  0  0
M  END
> <s_m_entry_id>
41139

> <s_m_entry_name>
dock_pv.256

> <s_m_Source_Path>
/home/csk/Desktop/cluster/DUD-E-result/tysy

> <s_m_Source_File>
dock_pv.maegz

> <i_m_Source_File_Index>
256

> <chembl_id>
CHEMBL138500

> <chembl_pref_name>
None

> <i_lp_mmshare_version>
53161

> <r_lp_tautomer_probability>
0.384609230769231

> <s_lp_Force_Field>
OPLS_2005

> <r_lp_Energy>
33.04701

> <b_lp_Chiralities_Consistent>
1

> <s_lp_Variant>
CHEMBL1952_lig99-12

> <s_i_glide_gridfile>
glide-grid_1syn

> <i_i_glide_lignum>
183

> <i_i_glide_rotatable_bonds>
2

> <r_i_docking_score>
-7.87757665421915

> <r_i_glide_ligand_efficiency>
-0.414609297590482

> <r_i_glide_ligand_efficiency_sa>
-1.10634413218003

> <r_i_glide_ligand_efficiency_ln>
-1.99713487667741

> <r_i_glide_gscore>
-7.87757665421915

> <r_i_glide_lipo>
-2.16537766334297

> <r_i_glide_hbond>
-0.32

> <r_i_glide_metal>
0

> <r_i_glide_rewards>
-2.79142288170411

> <r_i_glide_evdw>
-43.0342483520508

> <r_i_glide_ecoul>
-5.7608585357666

> <r_i_glide_erotb>
0.474163199295576

> <r_i_glide_esite>
-0.0590981105001215

> <r_i_glide_emodel>
-70.0446421290894

> <r_i_glide_energy>
-48.7951068878174

> <r_i_glide_einternal>
4.9579005241394

> <i_i_glide_confnum>
5

> <i_i_glide_posenum>
313

> <r_i_glide_eff_state_penalty>
0

> <s_user_duplicate_titles>
CHEMBL1952_lig99,231505

> <i_f3d_flags>
0

> <s_m_subgroup_title>
dock_pv

> <s_m_subgroupid>
dock_pv

> <b_m_subgroup_collapsed>
1

$$$$
CHEMBL1952_lig53
                    3D
 Schrodinger Suite 2021-1.
 32 34  0  0  1  0            999 V2000
   14.1079   17.6152   33.0274 C   0  0  0  0  0  0
   14.5239   17.0290   31.7759 C   0  0  0  0  0  0
   13.2218   18.6284   33.0664 N   0  0  0  0  0  0
   12.6777   19.0369   31.9088 C   0  0  0  0  0  0
   12.8895   18.5009   30.6941 N   0  0  0  0  0  0
   13.8023   17.4970   30.6282 C   0  0  0  0  0  0
   15.5364   16.0336   31.5902 C   0  0  0  0  0  0
   14.5445   17.0729   34.2042 O   0  0  0  0  0  0
   15.6571   15.3984   30.3156 C   0  0  0  0  0  0
   16.4719   15.6478   32.6009 C   0  0  0  0  0  0
   14.0029   16.9032   29.3715 C   0  0  0  0  0  0
   11.7922   20.0942   31.9915 N   0  0  0  0  0  0
   14.8805   15.8417   29.2270 C   0  0  0  0  0  0
   16.5645   14.3311   30.1495 C   0  0  0  0  0  0
   17.3708   14.5913   32.4113 C   0  0  0  0  0  0
   17.3927   13.9337   31.1914 C   0  0  0  0  0  0
   18.2609   14.1406   33.3653 O   0  0  0  0  0  0
   18.2175   14.6397   34.6986 C   0  0  0  0  0  0
   16.9838   14.1442   35.4761 C   0  0  0  0  0  0
   14.9429   16.2142   34.0604 H   0  0  0  0  0  0
   16.5434   16.1998   33.5171 H   0  0  0  0  0  0
   13.4398   17.2601   28.5198 H   0  0  0  0  0  0
   11.1820   20.2789   31.2056 H   0  0  0  0  0  0
   11.6889   20.5354   32.8948 H   0  0  0  0  0  0
   14.9925   15.3684   28.2611 H   0  0  0  0  0  0
   16.5965   13.8243   29.1950 H   0  0  0  0  0  0
   18.0831   13.1146   31.0426 H   0  0  0  0  0  0
   18.3049   15.7265   34.7247 H   0  0  0  0  0  0
   19.1141   14.2651   35.1906 H   0  0  0  0  0  0
   16.9925   14.5213   36.4982 H   0  0  0  0  0  0
   16.9724   13.0540   35.5244 H   0  0  0  0  0  0
   16.0453   14.4618   35.0236 H   0  0  0  0  0  0
  1  2  1  0  0  0
  1  3  2  0  0  0
  1  8  1  0  0  0
  2  6  2  0  0  0
  2  7  1  0  0  0
  3  4  1  0  0  0
  4  5  2  0  0  0
  4 12  1  0  0  0
  5  6  1  0  0  0
  6 11  1  0  0  0
  7  9  2  0  0  0
  7 10  1  0  0  0
  8 20  1  0  0  0
  9 13  1  0  0  0
  9 14  1  0  0  0
 10 15  2  0  0  0
 10 21  1  0  0  0
 11 13  2  0  0  0
 11 22  1  0  0  0
 12 23  1  0  0  0
 12 24  1  0  0  0
 13 25  1  0  0  0
 14 16  2  0  0  0
 14 26  1  0  0  0
 15 16  1  0  0  0
 15 17  1  0  0  0
 16 27  1  0  0  0
 17 18  1  0  0  0
 18 19  1  0  0  0
 18 28  1  0  0  0
 18 29  1  0  0  0
 19 30  1  0  0  0
 19 31  1  0  0  0
 19 32  1  0  0  0
M  END
> <s_m_entry_id>
41140

> <s_m_entry_name>
dock_pv.257

> <s_m_Source_Path>
/home/csk/Desktop/cluster/DUD-E-result/tysy

> <s_m_Source_File>
dock_pv.maegz

> <i_m_Source_File_Index>
257

> <chembl_id>
CHEMBL76244

> <chembl_pref_name>
None

> <i_lp_mmshare_version>
53161

> <r_lp_tautomer_probability>
1

> <s_lp_Force_Field>
OPLS_2005

> <r_lp_Energy>
17.685029

> <b_lp_Chiralities_Consistent>
1

> <s_lp_Variant>
CHEMBL1952_lig53-1

> <s_i_glide_gridfile>
glide-grid_1syn

> <i_i_glide_lignum>
74

> <i_i_glide_rotatable_bonds>
3

> <r_i_docking_score>
-7.86202334587082

> <r_i_glide_ligand_efficiency>
-0.413790702414254

> <r_i_glide_ligand_efficiency_sa>
-1.1041597914643

> <r_i_glide_ligand_efficiency_ln>
-1.99319177895668

> <r_i_glide_gscore>
-7.86202334587082

> <r_i_glide_lipo>
-3.30044991911494

> <r_i_glide_hbond>
-0.289560510856956

> <r_i_glide_metal>
0

> <r_i_glide_rewards>
-2.30163007168754

> <r_i_glide_evdw>
-39.1319007873535

> <r_i_glide_ecoul>
-1.89290702342987

> <r_i_glide_erotb>
0.270148248670778

> <r_i_glide_esite>
0

> <r_i_glide_emodel>
-59.6942209809213

> <r_i_glide_energy>
-41.0248078107834

> <r_i_glide_einternal>
3.43730783462524

> <i_i_glide_confnum>
3

> <i_i_glide_posenum>
78

> <r_i_glide_eff_state_penalty>
0

> <s_user_duplicate_titles>
CHEMBL1952_lig53

> <i_f3d_flags>
0

> <s_m_subgroup_title>
dock_pv

> <s_m_subgroupid>
dock_pv

> <b_m_subgroup_collapsed>
1

$$$$
CHEMBL1952_lig423
                    3D
 Schrodinger Suite 2021-1.
 58 61  0  0  1  0            999 V2000
   13.5810   14.1311   36.8134 N   0  0  0  0  0  0
   12.5370   13.3240   37.1909 C   0  0  0  0  0  0
   17.9349   12.5400   35.0313 N   0  0  0  0  0  0
   16.6593   12.3865   35.6024 C   0  0  0  0  0  0
   14.6132   13.3042   36.4412 C   0  0  0  0  0  0
   12.8075   12.0523   37.1347 N   0  0  0  0  0  0
   15.9002   13.5193   35.9471 C   0  0  0  0  0  0
   14.0868   12.0122   36.6540 C   0  0  0  0  0  0
   15.3880   15.9398   30.1711 C   0  0  0  0  0  0
   14.4870   16.8597   30.5661 N   0  0  0  0  0  0
   16.1329   11.0838   35.8036 C   0  0  0  0  0  0
   12.1920   16.1651   29.9910 C   0  0  0  0  0  0
   14.8629   10.8991   36.3565 C   0  0  0  0  0  0
   13.2744   17.2650   29.8482 C   0  0  1  0  0  0
   18.5607   13.7857   34.5571 C   0  0  0  0  0  0
   16.3216   15.4494   31.2555 C   0  0  0  0  0  0
   11.8374   19.9777   32.2962 C   0  0  0  0  0  0
   15.4103   15.4629   29.0357 O   0  0  0  0  0  0
   12.4037   15.0280   30.3573 O   0  0  0  0  0  0
   11.3354   13.8280   37.5633 N   0  0  0  0  0  0
   10.9920   19.8280   33.1741 O   0  0  0  0  0  0
   12.8027   18.6691   30.3340 C   0  0  0  0  0  0
   16.4874   16.1683   32.4499 C   0  0  0  0  0  0
   16.9920   14.2280   31.1032 C   0  0  0  0  0  0
   17.8329   14.3884   33.3619 C   0  0  0  0  0  0
   12.8284   18.9017   31.8642 C   0  0  0  0  0  0
   18.8201   11.3881   34.7882 C   0  0  0  0  0  0
   10.9772   16.6281   29.5910 O   0  0  0  0  0  0
   12.0044   21.1280   31.5915 O   0  0  0  0  0  0
   17.2474   15.6457   33.4850 C   0  0  0  0  0  0
   17.7349   13.6958   32.1539 C   0  0  0  0  0  0
   16.9218    9.8511   35.4134 C   0  0  0  0  0  0
   18.4180   10.1266   35.5617 C   0  0  0  0  0  0
   13.5368   15.1367   36.7990 H   0  0  0  0  0  0
   16.2775   14.5190   35.8091 H   0  0  0  0  0  0
   14.5363   17.1808   31.5186 H   0  0  0  0  0  0
   14.4616    9.9074   36.5049 H   0  0  0  0  0  0
   13.5071   17.3290   28.7829 H   0  0  0  0  0  0
   19.6029   13.6440   34.2629 H   0  0  0  0  0  0
   18.5841   14.5005   35.3777 H   0  0  0  0  0  0
   10.5575   13.2110   37.7417 H   0  0  0  0  0  0
   11.1342   14.8155   37.5202 H   0  0  0  0  0  0
   11.8180   18.9185   29.9346 H   0  0  0  0  0  0
   13.4262   19.4270   29.8641 H   0  0  0  0  0  0
   16.0249   17.1320   32.6044 H   0  0  0  0  0  0
   16.8947   13.6513   30.1931 H   0  0  0  0  0  0
   13.8247   19.2013   32.1868 H   0  0  0  0  0  0
   12.5920   17.9857   32.4036 H   0  0  0  0  0  0
   18.5921   11.1059   33.7588 H   0  0  0  0  0  0
   19.8874   11.6122   34.7910 H   0  0  0  0  0  0
   10.9609   17.5650   29.3817 H   0  0  0  0  0  0
   11.3919   21.8104   31.8732 H   0  0  0  0  0  0
   17.3509   16.2146   34.3910 H   0  0  0  0  0  0
   18.1921   12.7242   32.0379 H   0  0  0  0  0  0
   16.6905    9.5666   34.3910 H   0  0  0  0  0  0
   16.5920    9.0280   36.0410 H   0  0  0  0  0  0
   18.9989    9.2831   35.1910 H   0  0  0  0  0  0
   18.6857   10.2281   36.6125 H   0  0  0  0  0  0
  1  2  1  0  0  0
  1  5  1  0  0  0
  1 34  1  0  0  0
  2  6  2  0  0  0
  2 20  1  0  0  0
  3  4  1  0  0  0
  3 15  1  0  0  0
  3 27  1  0  0  0
  4  7  2  0  0  0
  4 11  1  0  0  0
  5  7  1  0  0  0
  5  8  2  0  0  0
  6  8  1  0  0  0
  7 35  1  0  0  0
  8 13  1  0  0  0
  9 16  1  0  0  0
  9 10  1  0  0  0
  9 18  2  0  0  0
 10 14  1  0  0  0
 10 36  1  0  0  0
 11 13  2  0  0  0
 11 32  1  0  0  0
 12 14  1  0  0  0
 12 19  2  0  0  0
 12 28  1  0  0  0
 13 37  1  0  0  0
 14 22  1  0  0  0
 14 38  1  0  0  0
 15 25  1  0  0  0
 15 39  1  0  0  0
 15 40  1  0  0  0
 16 24  2  0  0  0
 16 23  1  0  0  0
 17 26  1  0  0  0
 17 21  2  0  0  0
 17 29  1  0  0  0
 20 41  1  0  0  0
 20 42  1  0  0  0
 22 26  1  0  0  0
 22 43  1  0  0  0
 22 44  1  0  0  0
 23 30  2  0  0  0
 23 45  1  0  0  0
 24 31  1  0  0  0
 24 46  1  0  0  0
 25 30  1  0  0  0
 25 31  2  0  0  0
 26 47  1  0  0  0
 26 48  1  0  0  0
 27 33  1  0  0  0
 27 49  1  0  0  0
 27 50  1  0  0  0
 28 51  1  0  0  0
 29 52  1  0  0  0
 30 53  1  0  0  0
 31 54  1  0  0  0
 32 33  1  0  0  0
 32 55  1  0  0  0
 32 56  1  0  0  0
 33 57  1  0  0  0
 33 58  1  0  0  0
M  END
> <s_m_entry_id>
41141

> <s_m_entry_name>
dock_pv.258

> <s_m_Source_Path>
/home/csk/Desktop/cluster/DUD-E-result/tysy

> <s_m_Source_File>
dock_pv.maegz

> <i_m_Source_File_Index>
258

> <chembl_id>
CHEMBL169411

> <chembl_pref_name>
None

> <i_lp_mmshare_version>
53161

> <r_lp_tautomer_probability>
1

> <s_lp_Force_Field>
OPLS_2005

> <r_lp_Energy>
13.508537

> <b_lp_Chiralities_Consistent>
1

> <s_lp_Variant>
CHEMBL1952_lig423-1

> <s_i_glide_gridfile>
glide-grid_1syn

> <i_i_glide_lignum>
820

> <i_i_glide_rotatable_bonds>
11

> <r_i_docking_score>
-7.85614494219922

> <r_i_glide_ligand_efficiency>
-0.238064998248461

> <r_i_glide_ligand_efficiency_sa>
-0.763601653762356

> <r_i_glide_ligand_efficiency_ln>
-1.74716595820358

> <r_i_glide_gscore>
-7.85614494219922

> <r_i_glide_lipo>
-3.36237803999065

> <r_i_glide_hbond>
-0.384910655979097

> <r_i_glide_metal>
0

> <r_i_glide_rewards>
-1.679830340573

> <r_i_glide_evdw>
-53.8772048950195

> <r_i_glide_ecoul>
-3.94051766395569

> <r_i_glide_erotb>
0.885622991838182

> <r_i_glide_esite>
-0.0297110031503211

> <r_i_glide_emodel>
-79.8276282057305

> <r_i_glide_energy>
-57.8177225589752

> <r_i_glide_einternal>
7.86769723892212

> <i_i_glide_confnum>
49

> <i_i_glide_posenum>
331

> <r_i_glide_eff_state_penalty>
0

> <s_user_duplicate_titles>
CHEMBL1952_lig423

> <i_f3d_flags>
0

> <s_m_subgroup_title>
dock_pv

> <s_m_subgroupid>
dock_pv

> <b_m_subgroup_collapsed>
1

$$$$
CHEMBL1952_lig45
                    3D
 Schrodinger Suite 2021-1.
 28 30  0  0  1  0            999 V2000
   16.1119   16.2575   33.1149 C   0  0  0  0  0  0
   15.6001   16.2165   31.7612 C   0  0  0  0  0  0
   17.0978   15.4339   33.5419 N   0  0  0  0  0  0
   17.6063   14.5573   32.6623 C   0  0  0  0  0  0
   17.2234   14.4055   31.3841 N   0  0  0  0  0  0
   16.2302   15.2202   30.9403 C   0  0  0  0  0  0
   14.5690   17.0412   31.1780 C   0  0  0  0  0  0
   15.5904   17.1575   33.9918 O   0  0  0  0  0  0
   14.2239   16.8384   29.8002 C   0  0  0  0  0  0
   13.8420   18.0811   31.8653 C   0  0  0  0  0  0
   15.8415   15.0375   29.6068 C   0  0  0  0  0  0
   18.6192   13.7297   33.1166 N   0  0  0  0  0  0
   14.8648   15.8347   29.0485 C   0  0  0  0  0  0
   13.2365   17.6412   29.1820 C   0  0  0  0  0  0
   12.8715   18.8501   31.2270 C   0  0  0  0  0  0
   12.5744   18.6286   29.8912 C   0  0  0  0  0  0
   12.1437   19.9404   31.9934 C   0  0  0  0  0  0
   14.8877   17.6688   33.5959 H   0  0  0  0  0  0
   13.9895   18.3454   32.8924 H   0  0  0  0  0  0
   16.3183   14.2684   29.0134 H   0  0  0  0  0  0
   19.1133   13.1386   32.4519 H   0  0  0  0  0  0
   18.9761   13.8693   34.0469 H   0  0  0  0  0  0
   14.5909   15.6852   28.0144 H   0  0  0  0  0  0
   12.9963   17.4807   28.1408 H   0  0  0  0  0  0
   11.8170   19.2226   29.3968 H   0  0  0  0  0  0
   11.3955   20.4485   31.3822 H   0  0  0  0  0  0
   12.8548   20.6823   32.3593 H   0  0  0  0  0  0
   11.6375   19.5192   32.8622 H   0  0  0  0  0  0
  1  2  1  0  0  0
  1  3  2  0  0  0
  1  8  1  0  0  0
  2  6  2  0  0  0
  2  7  1  0  0  0
  3  4  1  0  0  0
  4  5  2  0  0  0
  4 12  1  0  0  0
  5  6  1  0  0  0
  6 11  1  0  0  0
  7  9  2  0  0  0
  7 10  1  0  0  0
  8 18  1  0  0  0
  9 13  1  0  0  0
  9 14  1  0  0  0
 10 15  2  0  0  0
 10 19  1  0  0  0
 11 13  2  0  0  0
 11 20  1  0  0  0
 12 21  1  0  0  0
 12 22  1  0  0  0
 13 23  1  0  0  0
 14 16  2  0  0  0
 14 24  1  0  0  0
 15 16  1  0  0  0
 15 17  1  0  0  0
 16 25  1  0  0  0
 17 26  1  0  0  0
 17 27  1  0  0  0
 17 28  1  0  0  0
M  END
> <s_m_entry_id>
41142

> <s_m_entry_name>
dock_pv.259

> <s_m_Source_Path>
/home/csk/Desktop/cluster/DUD-E-result/tysy

> <s_m_Source_File>
dock_pv.maegz

> <i_m_Source_File_Index>
259

> <chembl_id>
CHEMBL312542

> <chembl_pref_name>
None

> <i_lp_mmshare_version>
53161

> <r_lp_tautomer_probability>
1

> <s_lp_Force_Field>
OPLS_2005

> <r_lp_Energy>
13.463203

> <b_lp_Chiralities_Consistent>
1

> <s_lp_Variant>
CHEMBL1952_lig45-1

> <s_i_glide_gridfile>
glide-grid_1syn

> <i_i_glide_lignum>
63

> <i_i_glide_rotatable_bonds>
1

> <r_i_docking_score>
-7.85331517301192

> <r_i_glide_ligand_efficiency>
-0.461959716059525

> <r_i_glide_ligand_efficiency_sa>
-1.18782851240777

> <r_i_glide_ligand_efficiency_ln>
-2.04875504390834

> <r_i_glide_gscore>
-7.85331517301192

> <r_i_glide_lipo>
-3.20911884023641

> <r_i_glide_hbond>
-0.0953896701721046

> <r_i_glide_metal>
0

> <r_i_glide_rewards>
-2.18478678266352

> <r_i_glide_evdw>
-35.2533836364746

> <r_i_glide_ecoul>
-3.54469037055969

> <r_i_glide_erotb>
0

> <r_i_glide_esite>
-0.0696471425322119

> <r_i_glide_emodel>
-58.4217717242595

> <r_i_glide_energy>
-38.7980740070343

> <r_i_glide_einternal>
0.00248662359081209

> <i_i_glide_confnum>
1

> <i_i_glide_posenum>
380

> <r_i_glide_eff_state_penalty>
0

> <s_user_duplicate_titles>
CHEMBL1952_lig45

> <i_f3d_flags>
0

> <s_m_subgroup_title>
dock_pv

> <s_m_subgroupid>
dock_pv

> <b_m_subgroup_collapsed>
1

$$$$
CHEMBL1952_lig16
                    3D
 Schrodinger Suite 2021-1.
 30 32  0  0  1  0            999 V2000
   14.8159   16.9204   31.7597 C   0  0  0  0  0  0
   14.4321   16.4858   30.4627 C   0  0  0  0  0  0
   13.4510   16.9961   29.7194 N   0  0  0  0  0  0
   15.9427   16.1022   32.1479 C   0  0  0  0  0  0
   14.0547   17.9912   32.2886 C   0  0  0  0  0  0
   13.0377   18.5200   31.5616 N   0  0  0  0  0  0
   12.8035   18.0123   30.3308 C   0  0  0  0  0  0
   15.2683   15.4590   30.1021 N   0  0  0  0  0  0
   16.1804   15.2207   31.1008 C   0  0  0  0  0  0
   16.9320   16.2277   33.5905 S   0  0  0  0  0  0
   14.3863   18.4645   33.5282 O   0  0  0  0  0  0
   14.9099   13.3212   36.4766 N   0  0  0  0  0  0
   11.7920   18.5977   29.5984 N   0  0  0  0  0  0
   16.1311   15.0956   34.6862 C   0  0  0  0  0  0
   17.2306   14.1486   30.9316 C   0  0  0  0  0  0
   14.8133   15.3093   35.1003 C   0  0  0  0  0  0
   16.8433   14.0051   35.1917 C   0  0  0  0  0  0
   14.2415   14.3997   35.9917 C   0  0  0  0  0  0
   16.1940   13.1390   36.0726 C   0  0  0  0  0  0
   15.2568   14.9386   29.2382 H   0  0  0  0  0  0
   13.8066   19.1925   33.7821 H   0  0  0  0  0  0
   11.6070   18.2504   28.6742 H   0  0  0  0  0  0
   11.1377   19.2332   30.0441 H   0  0  0  0  0  0
   17.5934   13.7800   31.8913 H   0  0  0  0  0  0
   16.8572   13.2798   30.3891 H   0  0  0  0  0  0
   18.1008   14.5230   30.3930 H   0  0  0  0  0  0
   14.2491   16.1567   34.7409 H   0  0  0  0  0  0
   17.8685   13.8305   34.9014 H   0  0  0  0  0  0
   13.2251   14.5300   36.3323 H   0  0  0  0  0  0
   16.7115   12.2840   36.4824 H   0  0  0  0  0  0
  1  2  1  0  0  0
  1  4  1  0  0  0
  1  5  2  0  0  0
  2  3  2  0  0  0
  2  8  1  0  0  0
  3  7  1  0  0  0
  4  9  2  0  0  0
  4 10  1  0  0  0
  5  6  1  0  0  0
  5 11  1  0  0  0
  6  7  2  0  0  0
  7 13  1  0  0  0
  8  9  1  0  0  0
  8 20  1  0  0  0
  9 15  1  0  0  0
 10 14  1  0  0  0
 11 21  1  0  0  0
 12 19  2  0  0  0
 12 18  1  0  0  0
 13 22  1  0  0  0
 13 23  1  0  0  0
 14 16  1  0  0  0
 14 17  2  0  0  0
 15 24  1  0  0  0
 15 25  1  0  0  0
 15 26  1  0  0  0
 16 18  2  0  0  0
 16 27  1  0  0  0
 17 19  1  0  0  0
 17 28  1  0  0  0
 18 29  1  0  0  0
 19 30  1  0  0  0
M  END
> <s_m_entry_id>
41144

> <s_m_entry_name>
dock_pv.261

> <s_m_Source_Path>
/home/csk/Desktop/cluster/DUD-E-result/tysy

> <s_m_Source_File>
dock_pv.maegz

> <i_m_Source_File_Index>
261

> <chembl_id>
CHEMBL57310

> <chembl_pref_name>
None

> <i_lp_mmshare_version>
53161

> <r_lp_tautomer_probability>
1

> <s_lp_Force_Field>
OPLS_2005

> <r_lp_Energy>
1.358412

> <b_lp_Chiralities_Consistent>
1

> <s_lp_Variant>
CHEMBL1952_lig16-1

> <s_i_glide_gridfile>
glide-grid_1syn

> <i_i_glide_lignum>
17

> <i_i_glide_rotatable_bonds>
3

> <r_i_docking_score>
-7.84934399723584

> <r_i_glide_ligand_efficiency>
-0.413123368275571

> <r_i_glide_ligand_efficiency_sa>
-1.10237907595013

> <r_i_glide_ligand_efficiency_ln>
-1.98997729175027

> <r_i_glide_gscore>
-7.84934399723584

> <r_i_glide_lipo>
-3.04335977812585

> <r_i_glide_hbond>
-0.347621398256145

> <r_i_glide_metal>
0

> <r_i_glide_rewards>
-2.18998129616026

> <r_i_glide_evdw>
-37.2841377258301

> <r_i_glide_ecoul>
-5.46768999099731

> <r_i_glide_erotb>
0.480239815196433

> <r_i_glide_esite>
-0.0642609549489184

> <r_i_glide_emodel>
-63.9792518432279

> <r_i_glide_energy>
-42.7518277168274

> <r_i_glide_einternal>
1.57592928409576

> <i_i_glide_confnum>
6

> <i_i_glide_posenum>
151

> <r_i_glide_eff_state_penalty>
0

> <s_user_duplicate_titles>
CHEMBL1952_lig16,88511

> <i_f3d_flags>
0

> <s_m_subgroup_title>
dock_pv

> <s_m_subgroupid>
dock_pv

> <b_m_subgroup_collapsed>
1

$$$$
CHEMBL1952_lig116
                    3D
 Schrodinger Suite 2021-1.
 31 33  0  0  1  0            999 V2000
   14.5321   17.2174   31.7012 C   0  0  0  0  0  0
   14.4729   16.9918   30.3046 C   0  0  0  0  0  0
   13.7272   17.6633   29.4273 N   0  0  0  0  0  0
   15.4566   16.2575   32.2559 C   0  0  0  0  0  0
   13.7166   18.2703   32.1808 C   0  0  0  0  0  0
   12.9284   18.9577   31.3191 N   0  0  0  0  0  0
   12.9810   18.6281   30.0105 C   0  0  0  0  0  0
   15.3321   15.9640   30.0217 N   0  0  0  0  0  0
   15.9360   15.5032   31.1685 C   0  0  0  0  0  0
   15.7918   16.1549   33.9909 S   0  0  0  0  0  0
   13.7792   18.5659   33.5147 O   0  0  0  0  0  0
   17.0740   14.9628   34.1712 C   0  0  0  0  0  0
   16.7910   13.7563   34.8107 C   0  0  0  0  0  0
   12.1918   19.3783   29.1654 N   0  0  0  0  0  0
   17.7660   12.7650   34.8968 C   0  0  0  0  0  0
   16.9250   14.3627   31.0253 C   0  0  0  0  0  0
   17.3882   11.2306   35.5910 Cl  0  0  0  0  0  0
   19.3477   14.2383   33.8110 C   0  0  0  0  0  0
   18.3645   15.2229   33.7085 C   0  0  0  0  0  0
   19.0397   13.0076   34.3911 C   0  0  0  0  0  0
   15.5174   15.5664   29.1142 H   0  0  0  0  0  0
   13.2746   19.3533   33.7537 H   0  0  0  0  0  0
   15.7984   13.5669   35.1925 H   0  0  0  0  0  0
   12.0917   19.0292   28.2269 H   0  0  0  0  0  0
   11.3882   19.8244   29.5974 H   0  0  0  0  0  0
   17.9531   14.7223   30.9798 H   0  0  0  0  0  0
   16.8617   13.6481   31.8438 H   0  0  0  0  0  0
   16.7599   13.7797   30.1187 H   0  0  0  0  0  0
   20.3381   14.4113   33.4148 H   0  0  0  0  0  0
   18.5903   16.1658   33.2344 H   0  0  0  0  0  0
   19.7920   12.2340   34.4365 H   0  0  0  0  0  0
  1  2  1  0  0  0
  1  4  1  0  0  0
  1  5  2  0  0  0
  2  3  2  0  0  0
  2  8  1  0  0  0
  3  7  1  0  0  0
  4  9  2  0  0  0
  4 10  1  0  0  0
  5  6  1  0  0  0
  5 11  1  0  0  0
  6  7  2  0  0  0
  7 14  1  0  0  0
  8  9  1  0  0  0
  8 21  1  0  0  0
  9 16  1  0  0  0
 10 12  1  0  0  0
 11 22  1  0  0  0
 12 13  2  0  0  0
 12 19  1  0  0  0
 13 15  1  0  0  0
 13 23  1  0  0  0
 14 24  1  0  0  0
 14 25  1  0  0  0
 15 17  1  0  0  0
 15 20  2  0  0  0
 16 26  1  0  0  0
 16 27  1  0  0  0
 16 28  1  0  0  0
 18 19  2  0  0  0
 18 20  1  0  0  0
 18 29  1  0  0  0
 19 30  1  0  0  0
 20 31  1  0  0  0
M  END
> <s_m_entry_id>
41145

> <s_m_entry_name>
dock_pv.262

> <s_m_Source_Path>
/home/csk/Desktop/cluster/DUD-E-result/tysy

> <s_m_Source_File>
dock_pv.maegz

> <i_m_Source_File_Index>
262

> <chembl_id>
CHEMBL370992

> <chembl_pref_name>
None

> <i_lp_mmshare_version>
53161

> <r_lp_tautomer_probability>
1

> <s_lp_Force_Field>
OPLS_2005

> <r_lp_Energy>
2.245847

> <b_lp_Chiralities_Consistent>
1

> <s_lp_Variant>
CHEMBL1952_lig116-1

> <s_i_glide_gridfile>
glide-grid_1syn

> <i_i_glide_lignum>
293

> <i_i_glide_rotatable_bonds>
3

> <r_i_docking_score>
-7.84374271947234

> <r_i_glide_ligand_efficiency>
-0.392187135973617

> <r_i_glide_ligand_efficiency_sa>
-1.06455966982564

> <r_i_glide_ligand_efficiency_ln>
-1.96303009873476

> <r_i_glide_gscore>
-7.84374271947234

> <r_i_glide_lipo>
-2.75914497545558

> <r_i_glide_hbond>
-0.427689798824697

> <r_i_glide_metal>
0

> <r_i_glide_rewards>
-1.99301334366318

> <r_i_glide_evdw>
-42.0433235168457

> <r_i_glide_ecoul>
-5.99484062194824

> <r_i_glide_erotb>
0.392672918726141

> <r_i_glide_esite>
-0.0551752511205084

> <r_i_glide_emodel>
-68.2181137403413

> <r_i_glide_energy>
-48.0381641387939

> <r_i_glide_einternal>
5.0361328125

> <i_i_glide_confnum>
7

> <i_i_glide_posenum>
6

> <r_i_glide_eff_state_penalty>
0

> <s_user_duplicate_titles>
CHEMBL1952_lig116

> <i_f3d_flags>
0

> <s_m_subgroup_title>
dock_pv

> <s_m_subgroupid>
dock_pv

> <b_m_subgroup_collapsed>
1

$$$$
CHEMBL1952_lig43
                    3D
 Schrodinger Suite 2021-1.
 27 29  0  0  1  0            999 V2000
   16.4715   16.3254   32.9025 C   0  0  0  0  0  0
   15.7674   16.0174   31.6809 C   0  0  0  0  0  0
   17.4911   15.5621   33.3571 N   0  0  0  0  0  0
   17.9082   14.5585   32.5662 C   0  0  0  0  0  0
   17.4166   14.2391   31.3545 N   0  0  0  0  0  0
   13.4664   17.2909   33.3904 N   0  3  0  0  0  0
   16.3764   14.9869   30.9003 C   0  0  0  0  0  0
   14.6106   16.6897   31.1570 C   0  0  0  0  0  0
   13.6700   17.4675   31.9303 C   0  0  0  0  0  0
   12.9914   18.2287   34.0006 O   0  5  0  0  0  0
   16.1933   17.5102   33.5242 O   0  0  0  0  0  0
   13.7465   16.2280   33.9346 O   0  0  0  0  0  0
   15.9351   14.7426   29.5912 C   0  0  0  0  0  0
   14.3442   16.5666   29.7529 C   0  0  0  0  0  0
   18.9919   13.8282   33.0177 N   0  0  0  0  0  0
   14.9932   15.5683   29.0023 C   0  0  0  0  0  0
   12.7891   18.3271   31.2551 C   0  0  0  0  0  0
   12.6836   18.3341   29.8758 C   0  0  0  0  0  0
   13.4154   17.4307   29.1264 C   0  0  0  0  0  0
   15.5460   18.0242   33.0382 H   0  0  0  0  0  0
   16.4005   13.9572   29.0137 H   0  0  0  0  0  0
   19.4263   13.1541   32.3882 H   0  0  0  0  0  0
   19.4474   14.1143   33.8676 H   0  0  0  0  0  0
   14.7400   15.4287   27.9604 H   0  0  0  0  0  0
   12.1088   18.9621   31.8077 H   0  0  0  0  0  0
   11.9696   18.9903   29.3948 H   0  0  0  0  0  0
   13.2722   17.3861   28.0557 H   0  0  0  0  0  0
  1  2  1  0  0  0
  1  3  2  0  0  0
  1 11  1  0  0  0
  2  7  2  0  0  0
  2  8  1  0  0  0
  3  4  1  0  0  0
  4  5  2  0  0  0
  4 15  1  0  0  0
  5  7  1  0  0  0
  6  9  1  0  0  0
  6 10  1  0  0  0
  6 12  2  0  0  0
  7 13  1  0  0  0
  8  9  2  0  0  0
  8 14  1  0  0  0
  9 17  1  0  0  0
 11 20  1  0  0  0
 13 16  2  0  0  0
 13 21  1  0  0  0
 14 16  1  0  0  0
 14 19  2  0  0  0
 15 22  1  0  0  0
 15 23  1  0  0  0
 16 24  1  0  0  0
 17 18  2  0  0  0
 17 25  1  0  0  0
 18 19  1  0  0  0
 18 26  1  0  0  0
 19 27  1  0  0  0
M  CHG  2   6   1  10  -1
M  END
> <s_m_entry_id>
41147

> <s_m_entry_name>
dock_pv.264

> <s_m_Source_Path>
/home/csk/Desktop/cluster/DUD-E-result/tysy

> <s_m_Source_File>
dock_pv.maegz

> <i_m_Source_File_Index>
264

> <chembl_id>
CHEMBL75476

> <chembl_pref_name>
None

> <i_lp_mmshare_version>
53161

> <r_lp_tautomer_probability>
1

> <s_lp_Force_Field>
OPLS_2005

> <r_lp_Energy>
29.924582

> <b_lp_Chiralities_Consistent>
1

> <s_lp_Variant>
CHEMBL1952_lig43-1

> <s_i_glide_gridfile>
glide-grid_1syn

> <i_i_glide_lignum>
60

> <i_i_glide_rotatable_bonds>
2

> <r_i_docking_score>
-7.83608480766945

> <r_i_glide_ligand_efficiency>
-0.412425516193129

> <r_i_glide_ligand_efficiency_sa>
-1.10051692630461

> <r_i_glide_ligand_efficiency_ln>
-1.98661580241391

> <r_i_glide_gscore>
-7.83608480766945

> <r_i_glide_lipo>
-2.85247123549383

> <r_i_glide_hbond>
-0.16

> <r_i_glide_metal>
0

> <r_i_glide_rewards>
-2.37014196822105

> <r_i_glide_evdw>
-34.0217781066895

> <r_i_glide_ecoul>
-3.97330164909363

> <r_i_glide_erotb>
0

> <r_i_glide_esite>
-0.156387451256048

> <r_i_glide_emodel>
-57.077709714625

> <r_i_glide_energy>
-37.9950797557831

> <r_i_glide_einternal>
0.779049694538116

> <i_i_glide_confnum>
1

> <i_i_glide_posenum>
16

> <r_i_glide_eff_state_penalty>
0

> <s_user_duplicate_titles>
CHEMBL1952_lig43

> <i_f3d_flags>
0

> <s_m_subgroup_title>
dock_pv

> <s_m_subgroupid>
dock_pv

> <b_m_subgroup_collapsed>
1

$$$$
CHEMBL1952_lig80
                    3D
 Schrodinger Suite 2021-1.
 27 29  0  0  1  0            999 V2000
   14.6952   17.0873   32.1364 C   0  0  0  0  0  0
   14.2488   17.7399   33.3747 C   0  0  0  0  0  0
   13.3467   18.7207   33.1862 N   0  0  0  0  0  0
   14.0507   17.4519   30.9852 C   0  0  0  0  0  0
   13.0446   18.3766   30.9505 N   0  0  0  0  0  0
   12.7509   19.0296   32.0090 C   0  0  0  0  0  0
   15.7946   16.0699   32.0906 C   0  0  0  0  0  0
   14.5926   17.4743   34.5220 O   0  0  0  0  0  0
   14.4129   16.8236   29.6423 C   0  0  0  0  0  0
   15.9330   15.2640   30.9389 C   0  0  0  0  0  0
   11.7924   20.0509   31.9913 N   0  0  0  0  0  0
   14.8932   15.3684   29.8266 C   0  0  0  0  0  0
   16.7454   15.9389   33.1180 C   0  0  0  0  0  0
   16.9920   14.3529   30.8588 C   0  0  0  0  0  0
   17.7890   15.0226   33.0260 C   0  0  0  0  0  0
   17.9115   14.2271   31.8940 C   0  0  0  0  0  0
   13.0961   19.2432   34.0167 H   0  0  0  0  0  0
   15.1966   17.4280   29.1869 H   0  0  0  0  0  0
   13.5659   16.8573   28.9561 H   0  0  0  0  0  0
   11.2571   20.2529   31.1583 H   0  0  0  0  0  0
   11.5997   20.6228   32.7982 H   0  0  0  0  0  0
   14.0422   14.7414   30.1010 H   0  0  0  0  0  0
   15.2801   14.9700   28.8874 H   0  0  0  0  0  0
   16.7133   16.5647   33.9927 H   0  0  0  0  0  0
   17.0879   13.7173   29.9916 H   0  0  0  0  0  0
   18.5094   14.9370   33.8269 H   0  0  0  0  0  0
   18.7178   13.5097   31.8195 H   0  0  0  0  0  0
  1  2  1  0  0  0
  1  7  1  0  0  0
  1  4  2  0  0  0
  2  3  1  0  0  0
  2  8  2  0  0  0
  3  6  1  0  0  0
  3 17  1  0  0  0
  4  5  1  0  0  0
  4  9  1  0  0  0
  5  6  2  0  0  0
  6 11  1  0  0  0
  7 10  2  0  0  0
  7 13  1  0  0  0
  9 12  1  0  0  0
  9 18  1  0  0  0
  9 19  1  0  0  0
 10 12  1  0  0  0
 10 14  1  0  0  0
 11 20  1  0  0  0
 11 21  1  0  0  0
 12 22  1  0  0  0
 12 23  1  0  0  0
 13 15  2  0  0  0
 13 24  1  0  0  0
 14 16  2  0  0  0
 14 25  1  0  0  0
 15 16  1  0  0  0
 15 26  1  0  0  0
 16 27  1  0  0  0
M  END
> <s_m_entry_id>
41148

> <s_m_entry_name>
dock_pv.265

> <s_m_Source_Path>
/home/csk/Desktop/cluster/DUD-E-result/tysy

> <s_m_Source_File>
dock_pv.maegz

> <i_m_Source_File_Index>
265

> <chembl_id>
CHEMBL74773

> <chembl_pref_name>
None

> <i_lp_mmshare_version>
53161

> <r_lp_tautomer_probability>
0.878315377147829

> <s_lp_Force_Field>
OPLS_2005

> <r_lp_Energy>
19.32439

> <b_lp_Chiralities_Consistent>
1

> <s_lp_Variant>
CHEMBL1952_lig80-1

> <s_i_glide_gridfile>
glide-grid_1syn

> <i_i_glide_lignum>
124

> <i_i_glide_rotatable_bonds>
0

> <r_i_docking_score>
-7.83424357082542

> <r_i_glide_ligand_efficiency>
-0.489640223176589

> <r_i_glide_ligand_efficiency_sa>
-1.23381604697053

> <r_i_glide_ligand_efficiency_ln>
-2.07662275101492

> <r_i_glide_gscore>
-7.83424357082542

> <r_i_glide_lipo>
-2.78917620055372

> <r_i_glide_hbond>
-0.377711031374826

> <r_i_glide_metal>
0

> <r_i_glide_rewards>
-2.27598423058972

> <r_i_glide_evdw>
-35.2982521057129

> <r_i_glide_ecoul>
-4.10610961914062

> <r_i_glide_erotb>
0

> <r_i_glide_esite>
-0.0105430601504146

> <r_i_glide_emodel>
-58.8433158739883

> <r_i_glide_energy>
-39.4043617248535

> <r_i_glide_einternal>
0

> <i_i_glide_confnum>
1

> <i_i_glide_posenum>
280

> <r_i_glide_eff_state_penalty>
0

> <s_user_duplicate_titles>
CHEMBL1952_lig80,CHEMBL1952_lig80,CHEMBL1952_lig80

> <i_f3d_flags>
0

> <s_m_subgroup_title>
dock_pv

> <s_m_subgroupid>
dock_pv

> <b_m_subgroup_collapsed>
1

$$$$
CHEMBL1952_lig135
                    3D
 Schrodinger Suite 2021-1.
 34 36  0  0  1  0            999 V2000
   12.8849   18.9862   31.3676 N   0  0  0  0  0  0
   12.9684   18.6356   30.0668 C   0  0  0  0  0  0
   13.7261   17.6563   29.5222 N   0  0  0  0  0  0
   13.6312   18.2960   32.2644 C   0  0  0  0  0  0
   13.6684   18.6149   33.5911 O   0  0  0  0  0  0
   15.2764   16.2085   32.4387 C   0  0  0  0  0  0
   14.4279   17.2099   31.8313 C   0  0  0  0  0  0
   14.4217   16.9766   30.4348 C   0  0  0  0  0  0
   15.2661   15.9264   30.1950 N   0  0  0  0  0  0
   15.7942   15.4426   31.3704 C   0  0  0  0  0  0
   12.1919   19.3648   29.1905 N   0  0  0  0  0  0
   16.7327   14.2521   31.2605 C   0  0  0  0  0  0
   18.1346   14.6421   30.7911 C   0  0  0  0  0  0
   15.4637   16.0401   34.2002 S   0  0  0  0  0  0
   16.8662   14.9962   34.4144 C   0  0  0  0  0  0
   18.1348   15.4043   33.9989 C   0  0  0  0  0  0
   19.1984   14.5015   34.0423 C   0  0  0  0  0  0
   18.9910   13.2041   34.5126 C   0  0  0  0  0  0
   17.7428   12.8248   35.0039 C   0  0  0  0  0  0
   16.6867   13.7340   34.9813 C   0  0  0  0  0  0
   17.4904   11.2208   35.5911 Cl  0  0  0  0  0  0
   13.1798   19.4183   33.8122 H   0  0  0  0  0  0
   15.4799   15.5149   29.2994 H   0  0  0  0  0  0
   12.1270   19.0021   28.2545 H   0  0  0  0  0  0
   11.3718   19.8112   29.5912 H   0  0  0  0  0  0
   16.8112   13.7010   32.1911 H   0  0  0  0  0  0
   16.3353   13.5206   30.5545 H   0  0  0  0  0  0
   18.8142   13.7925   30.8082 H   0  0  0  0  0  0
   18.1061   15.0278   29.7725 H   0  0  0  0  0  0
   18.5789   15.4239   31.4011 H   0  0  0  0  0  0
   18.2843   16.3923   33.5913 H   0  0  0  0  0  0
   20.1720   14.7899   33.6744 H   0  0  0  0  0  0
   19.7984   12.4896   34.4974 H   0  0  0  0  0  0
   15.7105   13.4317   35.3298 H   0  0  0  0  0  0
  1  2  2  0  0  0
  1  4  1  0  0  0
  2 11  1  0  0  0
  2  3  1  0  0  0
  3  8  2  0  0  0
  4  5  1  0  0  0
  4  7  2  0  0  0
  5 22  1  0  0  0
  6  7  1  0  0  0
  6 10  2  0  0  0
  6 14  1  0  0  0
  7  8  1  0  0  0
  8  9  1  0  0  0
  9 10  1  0  0  0
  9 23  1  0  0  0
 10 12  1  0  0  0
 11 24  1  0  0  0
 11 25  1  0  0  0
 12 13  1  0  0  0
 12 26  1  0  0  0
 12 27  1  0  0  0
 13 28  1  0  0  0
 13 29  1  0  0  0
 13 30  1  0  0  0
 14 15  1  0  0  0
 15 16  2  0  0  0
 15 20  1  0  0  0
 16 17  1  0  0  0
 16 31  1  0  0  0
 17 18  2  0  0  0
 17 32  1  0  0  0
 18 19  1  0  0  0
 18 33  1  0  0  0
 19 20  2  0  0  0
 19 21  1  0  0  0
 20 34  1  0  0  0
M  END
> <s_m_entry_id>
41149

> <s_m_entry_name>
dock_pv.266

> <s_m_Source_Path>
/home/csk/Desktop/cluster/DUD-E-result/tysy

> <s_m_Source_File>
dock_pv.maegz

> <i_m_Source_File_Index>
266

> <chembl_id>
CHEMBL201618

> <chembl_pref_name>
None

> <i_lp_mmshare_version>
53161

> <r_lp_tautomer_probability>
1

> <s_lp_Force_Field>
OPLS_2005

> <r_lp_Energy>
3.121121

> <b_lp_Chiralities_Consistent>
1

> <s_lp_Variant>
CHEMBL1952_lig135-1

> <s_i_glide_gridfile>
glide-grid_1syn

> <i_i_glide_lignum>
312

> <i_i_glide_rotatable_bonds>
4

> <r_i_docking_score>
-7.83002713820266

> <r_i_glide_ligand_efficiency>
-0.372858435152507

> <r_i_glide_ligand_efficiency_sa>
-1.02868815006593

> <r_i_glide_ligand_efficiency_ln>
-1.93595838786099

> <r_i_glide_gscore>
-7.83002713820266

> <r_i_glide_lipo>
-2.80343062766518

> <r_i_glide_hbond>
-0.446844027730003

> <r_i_glide_metal>
0

> <r_i_glide_rewards>
-1.89315897334175

> <r_i_glide_evdw>
-41.644847869873

> <r_i_glide_ecoul>
-6.08230876922607

> <r_i_glide_erotb>
0.362986899996077

> <r_i_glide_esite>
-0.0549917005842292

> <r_i_glide_emodel>
-68.0398015719711

> <r_i_glide_energy>
-47.7271566390991

> <r_i_glide_einternal>
4.65974903106689

> <i_i_glide_confnum>
10

> <i_i_glide_posenum>
292

> <r_i_glide_eff_state_penalty>
0

> <s_user_duplicate_titles>
CHEMBL1952_lig135

> <i_f3d_flags>
0

> <s_m_subgroup_title>
dock_pv

> <s_m_subgroupid>
dock_pv

> <b_m_subgroup_collapsed>
1

$$$$
CHEMBL1952_lig99
                    3D
 Schrodinger Suite 2021-1.
 32 34  0  0  1  0            999 V2000
   13.1996   17.8643   29.1954 N   0  0  0  0  0  0
   14.9565   15.8820   31.7419 C   0  0  1  0  0  0
   13.7892   16.7605   31.3258 C   0  0  2  0  0  0
   14.2555   17.2054   29.9467 C   0  0  1  0  0  0
   13.3189   18.0350   32.0799 C   0  0  0  0  0  0
   12.6910   18.8926   31.2292 N   0  0  0  0  0  0
   12.5702   18.7666   29.8656 C   0  0  0  0  0  0
   14.9740   16.0952   29.3858 N   0  0  0  0  0  0
   15.4815   15.4373   30.3652 C   0  0  0  0  0  0
   16.2389   16.6280   32.7910 S   0  0  0  0  0  0
   13.3926   18.2058   33.2929 O   0  0  0  0  0  0
   17.8242   13.0983   35.1910 N   0  0  0  0  0  0
   11.7920   19.7128   29.1910 N   0  0  0  0  0  0
   16.8830   15.2968   33.7454 C   0  0  0  0  0  0
   16.4954   14.3269   30.2130 C   0  0  0  0  0  0
   18.0648   14.6604   33.3611 C   0  0  0  0  0  0
   16.1920   14.8545   34.8754 C   0  0  0  0  0  0
   16.6972   13.7545   35.5708 C   0  0  0  0  0  0
   18.4952   13.5614   34.1050 C   0  0  0  0  0  0
   12.8936   16.1383   31.2497 H   0  0  0  0  0  0
   14.9920   17.9995   30.0488 H   0  0  0  0  0  0
   12.2918   19.7073   31.6679 H   0  0  0  0  0  0
   16.5920   14.0220   29.1737 H   0  0  0  0  0  0
   11.6744   19.5488   28.2019 H   0  0  0  0  0  0
   10.8490   19.8280   29.5645 H   0  0  0  0  0  0
   16.2141   13.4450   30.7836 H   0  0  0  0  0  0
   14.5920   15.0280   32.3012 H   0  0  0  0  0  0
   17.4785   14.6488   30.5506 H   0  0  0  0  0  0
   18.6271   14.9926   32.5009 H   0  0  0  0  0  0
   15.2830   15.3424   35.1966 H   0  0  0  0  0  0
   16.1923   13.3759   36.4474 H   0  0  0  0  0  0
   19.3920   13.0280   33.8258 H   0  0  0  0  0  0
  1  4  1  0  0  0
  1  7  2  0  0  0
  2  3  1  0  0  0
  2 10  1  0  0  0
  2 27  1  0  0  0
  2  9  1  0  0  0
  3  4  1  0  0  0
  3  5  1  0  0  0
  3 20  1  0  0  0
  4 21  1  0  0  0
  4  8  1  0  0  0
  5  6  1  0  0  0
  5 11  2  0  0  0
  6  7  1  0  0  0
  6 22  1  0  0  0
  7 13  1  0  0  0
  8  9  2  0  0  0
  9 15  1  0  0  0
 10 14  1  0  0  0
 12 18  1  0  0  0
 12 19  2  0  0  0
 13 24  1  0  0  0
 13 25  1  0  0  0
 14 16  2  0  0  0
 14 17  1  0  0  0
 15 26  1  0  0  0
 15 28  1  0  0  0
 15 23  1  0  0  0
 16 19  1  0  0  0
 16 29  1  0  0  0
 17 18  2  0  0  0
 17 30  1  0  0  0
 18 31  1  0  0  0
 19 32  1  0  0  0
M  END
> <s_m_entry_id>
41150

> <s_m_entry_name>
dock_pv.267

> <s_m_Source_Path>
/home/csk/Desktop/cluster/DUD-E-result/tysy

> <s_m_Source_File>
dock_pv.maegz

> <i_m_Source_File_Index>
267

> <chembl_id>
CHEMBL138500

> <chembl_pref_name>
None

> <i_lp_mmshare_version>
53161

> <r_lp_tautomer_probability>
0.384609230769231

> <s_lp_Force_Field>
OPLS_2005

> <r_lp_Energy>
38.192966

> <b_lp_Chiralities_Consistent>
1

> <s_lp_Variant>
CHEMBL1952_lig99-6

> <s_i_glide_gridfile>
glide-grid_1syn

> <i_i_glide_lignum>
177

> <i_i_glide_rotatable_bonds>
2

> <r_i_docking_score>
-7.82877115448395

> <r_i_glide_ligand_efficiency>
-0.412040587078103

> <r_i_glide_ligand_efficiency_sa>
-1.09948978082044

> <r_i_glide_ligand_efficiency_ln>
-1.98476163424852

> <r_i_glide_gscore>
-7.82877115448395

> <r_i_glide_lipo>
-2.01701048224714

> <r_i_glide_hbond>
-0.336999740715973

> <r_i_glide_metal>
0

> <r_i_glide_rewards>
-2.66111407937297

> <r_i_glide_evdw>
-37.7619895935059

> <r_i_glide_ecoul>
-8.82672023773193

> <r_i_glide_erotb>
0.474163199295576

> <r_i_glide_esite>
-0.0757025361083621

> <r_i_glide_emodel>
-65.9220837285757

> <r_i_glide_energy>
-46.5887098312378

> <r_i_glide_einternal>
4.417076587677

> <i_i_glide_confnum>
9

> <i_i_glide_posenum>
232

> <r_i_glide_eff_state_penalty>
0

> <s_user_duplicate_titles>
CHEMBL1952_lig99

> <i_f3d_flags>
0

> <s_m_subgroup_title>
dock_pv

> <s_m_subgroupid>
dock_pv

> <b_m_subgroup_collapsed>
1

$$$$
CHEMBL1952_lig78
                    3D
 Schrodinger Suite 2021-1.
 29 31  0  0  1  0            999 V2000
   14.3917   18.1098   32.9669 C   0  0  0  0  0  0
   14.7583   17.1842   31.9202 C   0  0  0  0  0  0
   13.4320   19.0284   32.7932 N   0  0  0  0  0  0
   12.7782   19.0599   31.6367 C   0  0  0  0  0  0
   12.9863   18.2494   30.5829 N   0  0  0  0  0  0
   13.9793   17.3246   30.7202 C   0  0  0  0  0  0
   15.7932   16.1862   31.9608 C   0  0  0  0  0  0
   14.9920   18.0851   34.1850 O   0  0  0  0  0  0
   15.9904   15.3442   30.8184 C   0  0  0  0  0  0
   16.6827   15.9821   33.0692 C   0  0  0  0  0  0
   14.2222   16.4922   29.6139 C   0  0  0  0  0  0
   11.7921   20.0234   31.5792 N   0  0  0  0  0  0
   18.6366   14.9408   34.1877 C   0  0  0  0  0  0
   15.1970   15.5123   29.6659 C   0  0  0  0  0  0
   17.6988   15.0242   33.0461 C   0  0  0  0  0  0
   16.9919   14.3460   30.8379 C   0  0  0  0  0  0
   19.8203   14.3026   34.1983 C   0  0  0  0  0  0
   17.8272   14.1970   31.9329 C   0  0  0  0  0  0
   14.5683   18.7596   34.7250 H   0  0  0  0  0  0
   16.6395   16.5913   33.9498 H   0  0  0  0  0  0
   13.6398   16.6272   28.7145 H   0  0  0  0  0  0
   11.0944   19.9746   30.8408 H   0  0  0  0  0  0
   11.6563   20.5835   32.4075 H   0  0  0  0  0  0
   18.3314   15.4382   35.0971 H   0  0  0  0  0  0
   15.3626   14.8761   28.8070 H   0  0  0  0  0  0
   17.1131   13.6907   29.9905 H   0  0  0  0  0  0
   20.1954   13.7810   33.3294 H   0  0  0  0  0  0
   20.4446   14.2957   35.0792 H   0  0  0  0  0  0
   18.5884   13.4291   31.8928 H   0  0  0  0  0  0
  1  2  1  0  0  0
  1  3  2  0  0  0
  1  8  1  0  0  0
  2  6  2  0  0  0
  2  7  1  0  0  0
  3  4  1  0  0  0
  4  5  2  0  0  0
  4 12  1  0  0  0
  5  6  1  0  0  0
  6 11  1  0  0  0
  7  9  2  0  0  0
  7 10  1  0  0  0
  8 19  1  0  0  0
  9 14  1  0  0  0
  9 16  1  0  0  0
 10 15  2  0  0  0
 10 20  1  0  0  0
 11 14  2  0  0  0
 11 21  1  0  0  0
 12 22  1  0  0  0
 12 23  1  0  0  0
 13 15  1  0  0  0
 13 17  2  0  0  0
 13 24  1  0  0  0
 14 25  1  0  0  0
 15 18  1  0  0  0
 16 18  2  0  0  0
 16 26  1  0  0  0
 17 27  1  0  0  0
 17 28  1  0  0  0
 18 29  1  0  0  0
M  END
> <s_m_entry_id>
41151

> <s_m_entry_name>
dock_pv.268

> <s_m_Source_Path>
/home/csk/Desktop/cluster/DUD-E-result/tysy

> <s_m_Source_File>
dock_pv.maegz

> <i_m_Source_File_Index>
268

> <chembl_id>
CHEMBL75213

> <chembl_pref_name>
None

> <i_lp_mmshare_version>
53161

> <r_lp_tautomer_probability>
1

> <s_lp_Force_Field>
OPLS_2005

> <r_lp_Energy>
15.153082

> <b_lp_Chiralities_Consistent>
1

> <s_lp_Variant>
CHEMBL1952_lig78-1

> <s_i_glide_gridfile>
glide-grid_1syn

> <i_i_glide_lignum>
122

> <i_i_glide_rotatable_bonds>
2

> <r_i_docking_score>
-7.82533368092521

> <r_i_glide_ligand_efficiency>
-0.434740760051401

> <r_i_glide_ligand_efficiency_sa>
-1.13934310451883

> <r_i_glide_ligand_efficiency_ln>
-2.01146167202206

> <r_i_glide_gscore>
-7.82533368092521

> <r_i_glide_lipo>
-3.11821537582078

> <r_i_glide_hbond>
-0.32

> <r_i_glide_metal>
0

> <r_i_glide_rewards>
-2.33515542779983

> <r_i_glide_evdw>
-36.3807525634766

> <r_i_glide_ecoul>
-3.59408378601074

> <r_i_glide_erotb>
0.306187318770839

> <r_i_glide_esite>
0

> <r_i_glide_emodel>
-58.9171571883319

> <r_i_glide_energy>
-39.9748363494873

> <r_i_glide_einternal>
1.06086409091949

> <i_i_glide_confnum>
2

> <i_i_glide_posenum>
348

> <r_i_glide_eff_state_penalty>
0

> <s_user_duplicate_titles>
CHEMBL1952_lig78,CHEMBL1952_lig58,CHEMBL1952_lig58,CHEMBL1952_lig58

> <i_f3d_flags>
0

> <s_m_subgroup_title>
dock_pv

> <s_m_subgroupid>
dock_pv

> <b_m_subgroup_collapsed>
1

$$$$
CHEMBL1952_lig60
                    3D
 Schrodinger Suite 2021-1.
 31 33  0  0  1  0            999 V2000
   14.6928   17.0764   32.1459 C   0  0  0  0  0  0
   14.2540   17.7378   33.3818 C   0  0  0  0  0  0
   14.0416   17.4348   30.9972 C   0  0  0  0  0  0
   13.3614   18.7277   33.1909 N   0  0  0  0  0  0
   13.0378   18.3610   30.9626 N   0  0  0  0  0  0
   15.7931   16.0574   32.0976 C   0  0  0  0  0  0
   12.7561   19.0282   32.0156 C   0  0  0  0  0  0
   15.9151   15.2433   30.9529 C   0  0  0  0  0  0
   14.5965   17.4713   34.5285 O   0  0  0  0  0  0
   16.7606   15.9383   33.1101 C   0  0  0  0  0  0
   14.3908   16.7910   29.6588 C   0  0  0  0  0  0
   11.7951   20.0473   31.9909 N   0  0  0  0  0  0
   14.8549   15.3322   29.8574 C   0  0  0  0  0  0
   16.9787   14.3417   30.8575 C   0  0  0  0  0  0
   17.8233   15.0394   33.0146 C   0  0  0  0  0  0
   17.9155   14.2289   31.8773 C   0  0  0  0  0  0
   18.7358   15.0365   34.0539 O   0  0  0  0  0  0
   19.8928   14.2125   33.9504 C   0  0  0  0  0  0
   13.1170   19.2528   34.0212 H   0  0  0  0  0  0
   16.7318   16.5631   33.9878 H   0  0  0  0  0  0
   15.1771   17.3830   29.1929 H   0  0  0  0  0  0
   13.5402   16.8277   28.9774 H   0  0  0  0  0  0
   11.2516   20.2303   31.1574 H   0  0  0  0  0  0
   11.5973   20.6241   32.7904 H   0  0  0  0  0  0
   14.0013   14.7218   30.1608 H   0  0  0  0  0  0
   15.2165   14.9146   28.9164 H   0  0  0  0  0  0
   17.0630   13.7005   29.9923 H   0  0  0  0  0  0
   18.7086   13.5041   31.7630 H   0  0  0  0  0  0
   20.5494   14.3999   34.8008 H   0  0  0  0  0  0
   19.6290   13.1545   33.9632 H   0  0  0  0  0  0
   20.4665   14.4198   33.0463 H   0  0  0  0  0  0
  1  2  1  0  0  0
  1  6  1  0  0  0
  1  3  2  0  0  0
  2  4  1  0  0  0
  2  9  2  0  0  0
  3  5  1  0  0  0
  3 11  1  0  0  0
  4  7  1  0  0  0
  4 19  1  0  0  0
  5  7  2  0  0  0
  6  8  2  0  0  0
  6 10  1  0  0  0
  7 12  1  0  0  0
  8 13  1  0  0  0
  8 14  1  0  0  0
 10 15  2  0  0  0
 10 20  1  0  0  0
 11 13  1  0  0  0
 11 21  1  0  0  0
 11 22  1  0  0  0
 12 23  1  0  0  0
 12 24  1  0  0  0
 13 25  1  0  0  0
 13 26  1  0  0  0
 14 16  2  0  0  0
 14 27  1  0  0  0
 15 16  1  0  0  0
 15 17  1  0  0  0
 16 28  1  0  0  0
 17 18  1  0  0  0
 18 29  1  0  0  0
 18 30  1  0  0  0
 18 31  1  0  0  0
M  END
> <s_m_entry_id>
41153

> <s_m_entry_name>
dock_pv.270

> <s_m_Source_Path>
/home/csk/Desktop/cluster/DUD-E-result/tysy

> <s_m_Source_File>
dock_pv.maegz

> <i_m_Source_File_Index>
270

> <chembl_id>
CHEMBL75556

> <chembl_pref_name>
None

> <i_lp_mmshare_version>
53161

> <r_lp_tautomer_probability>
0.878315377147829

> <s_lp_Force_Field>
OPLS_2005

> <r_lp_Energy>
23.587503

> <b_lp_Chiralities_Consistent>
1

> <s_lp_Variant>
CHEMBL1952_lig60-1

> <s_i_glide_gridfile>
glide-grid_1syn

> <i_i_glide_lignum>
90

> <i_i_glide_rotatable_bonds>
1

> <r_i_docking_score>
-7.81348319747445

> <r_i_glide_ligand_efficiency>
-0.434082399859692

> <r_i_glide_ligand_efficiency_sa>
-1.13761771271379

> <r_i_glide_ligand_efficiency_ln>
-2.00841556635704

> <r_i_glide_gscore>
-7.81348319747445

> <r_i_glide_lipo>
-2.77594833097127

> <r_i_glide_hbond>
-0.390784070657133

> <r_i_glide_metal>
0

> <r_i_glide_rewards>
-2.06794913214373

> <r_i_glide_evdw>
-38.107349395752

> <r_i_glide_ecoul>
-4.41513538360596

> <r_i_glide_erotb>
0

> <r_i_glide_esite>
-0.0111638863738303

> <r_i_glide_emodel>
-63.6630998997449

> <r_i_glide_energy>
-42.5224847793579

> <r_i_glide_einternal>
0.0176857896149158

> <i_i_glide_confnum>
1

> <i_i_glide_posenum>
140

> <r_i_glide_eff_state_penalty>
0

> <s_user_duplicate_titles>
CHEMBL1952_lig60,CHEMBL1952_lig60,CHEMBL1952_lig60

> <i_f3d_flags>
0

> <s_m_subgroup_title>
dock_pv

> <s_m_subgroupid>
dock_pv

> <b_m_subgroup_collapsed>
1

$$$$
CHEMBL1952_lig251
                    3D
 Schrodinger Suite 2021-1.
 55 57  0  0  1  0            999 V2000
   14.0598   11.8142   37.1015 C   0  0  0  0  0  0
   13.0068   11.6005   38.0621 C   0  0  0  0  0  0
   12.8453   10.4945   38.5808 O   0  0  0  0  0  0
   12.2678   12.6765   38.3774 N   0  0  0  0  0  0
   11.2114   12.7264   39.3923 C   0  0  1  0  0  0
   11.7931   13.3434   40.7054 C   0  0  0  0  0  0
    9.9748   13.4283   38.7829 C   0  0  0  0  0  0
    9.3398   14.2277   39.6857 O   0  0  0  0  0  0
    9.6376   13.3168   37.6225 O   0  0  0  0  0  0
   13.0438   12.5982   41.2415 C   0  0  0  0  0  0
   13.5105   13.0183   42.6335 C   0  0  0  0  0  0
   14.3042   12.0603   43.1909 O   0  0  0  0  0  0
   13.1903   14.0666   43.1909 O   0  0  0  0  0  0
   14.8419   16.5828   29.4887 N   0  0  0  0  0  0
   13.9519   17.3804   29.9409 C   0  0  0  0  0  0
   13.6951   17.5910   31.2806 N   0  0  0  0  0  0
   15.6665   15.8279   30.3356 C   0  0  0  0  0  0
   16.5251   15.0325   29.9623 O   0  0  0  0  0  0
   15.4608   16.0611   31.8263 C   0  0  0  0  0  0
   14.4456   16.9259   32.2518 C   0  0  0  0  0  0
   14.2060   17.1228   33.6057 C   0  0  0  0  0  0
   14.9909   16.4538   34.5434 C   0  0  0  0  0  0
   16.0373   15.6131   34.1414 C   0  0  0  0  0  0
   16.2781   15.4278   32.7736 C   0  0  0  0  0  0
   16.9391   14.9739   35.2026 C   0  0  0  0  0  0
   16.9373   13.5010   35.1866 N   0  0  0  0  0  0
   13.1241   18.1758   28.9609 C   0  0  0  0  0  0
   15.9364   12.7432   35.7863 C   0  0  0  0  0  0
   14.6854   13.4255   36.7922 S   0  0  0  0  0  0
   14.7185   10.8861   36.4560 N   0  0  0  0  0  0
   15.7130   11.3651   35.7425 C   0  0  0  0  0  0
   17.9467   12.9376   34.2726 C   0  0  0  0  0  0
   18.6789   11.7657   34.7916 C   0  0  0  0  0  0
   19.2570   10.7662   35.1910 C   0  0  0  0  0  0
   12.3918   13.5180   37.8338 H   0  0  0  0  0  0
   10.8742   11.7121   39.6106 H   0  0  0  0  0  0
   12.0670   14.3848   40.5271 H   0  0  0  0  0  0
   11.0241   13.3634   41.4782 H   0  0  0  0  0  0
    8.6839   14.7588   39.2126 H   0  0  0  0  0  0
   12.8371   11.5276   41.2642 H   0  0  0  0  0  0
   13.8867   12.7322   40.5649 H   0  0  0  0  0  0
   14.5919   12.2313   44.0996 H   0  0  0  0  0  0
   12.9905   18.2541   31.5595 H   0  0  0  0  0  0
   13.4209   17.7880   33.9330 H   0  0  0  0  0  0
   14.7941   16.6121   35.5910 H   0  0  0  0  0  0
   17.0918   14.7910   32.4521 H   0  0  0  0  0  0
   17.9521   15.3570   35.0702 H   0  0  0  0  0  0
   16.6524   15.3198   36.1965 H   0  0  0  0  0  0
   13.2998   17.8614   27.9294 H   0  0  0  0  0  0
   12.0581   18.0665   29.1681 H   0  0  0  0  0  0
   13.3702   19.2363   29.0238 H   0  0  0  0  0  0
   16.3042   10.6534   35.1912 H   0  0  0  0  0  0
   17.4572   12.6291   33.3504 H   0  0  0  0  0  0
   18.7038   13.6691   33.9866 H   0  0  0  0  0  0
   19.7852    9.8946   35.5036 H   0  0  0  0  0  0
  1  2  1  0  0  0
  1 29  1  0  0  0
  1 30  2  0  0  0
  2  3  2  0  0  0
  2  4  1  0  0  0
  4  5  1  0  0  0
  4 35  1  0  0  0
  5  6  1  0  0  0
  5  7  1  0  0  0
  5 36  1  0  0  0
  6 10  1  0  0  0
  6 37  1  0  0  0
  6 38  1  0  0  0
  7  9  2  0  0  0
  7  8  1  0  0  0
  8 39  1  0  0  0
 10 11  1  0  0  0
 10 40  1  0  0  0
 10 41  1  0  0  0
 11 12  1  0  0  0
 11 13  2  0  0  0
 12 42  1  0  0  0
 14 15  2  0  0  0
 14 17  1  0  0  0
 15 16  1  0  0  0
 15 27  1  0  0  0
 16 20  1  0  0  0
 16 43  1  0  0  0
 17 18  2  0  0  0
 17 19  1  0  0  0
 19 24  1  0  0  0
 19 20  2  0  0  0
 20 21  1  0  0  0
 21 22  2  0  0  0
 21 44  1  0  0  0
 22 23  1  0  0  0
 22 45  1  0  0  0
 23 24  2  0  0  0
 23 25  1  0  0  0
 24 46  1  0  0  0
 25 26  1  0  0  0
 25 47  1  0  0  0
 25 48  1  0  0  0
 26 28  1  0  0  0
 26 32  1  0  0  0
 27 49  1  0  0  0
 27 50  1  0  0  0
 27 51  1  0  0  0
 28 29  1  0  0  0
 28 31  2  0  0  0
 30 31  1  0  0  0
 31 52  1  0  0  0
 32 33  1  0  0  0
 32 53  1  0  0  0
 32 54  1  0  0  0
 33 34  3  0  0  0
 34 55  1  0  0  0
M  END
> <s_m_entry_id>
41155

> <s_m_entry_name>
dock_pv.272

> <s_m_Source_Path>
/home/csk/Desktop/cluster/DUD-E-result/tysy

> <s_m_Source_File>
dock_pv.maegz

> <i_m_Source_File_Index>
272

> <chembl_id>
CHEMBL1095919

> <chembl_pref_name>
None

> <i_lp_mmshare_version>
53161

> <r_lp_tautomer_probability>
0.116051

> <s_lp_Force_Field>
OPLS_2005

> <r_lp_Energy>
12.816126

> <b_lp_Chiralities_Consistent>
1

> <s_lp_Variant>
CHEMBL1952_lig251-2

> <s_i_glide_gridfile>
glide-grid_1syn

> <i_i_glide_lignum>
499

> <i_i_glide_rotatable_bonds>
14

> <r_i_docking_score>
-7.79902669362842

> <r_i_glide_ligand_efficiency>
-0.229383138047895

> <r_i_glide_ligand_efficiency_sa>
-0.743112320160528

> <r_i_glide_ligand_efficiency_ln>
-1.72302375191154

> <r_i_glide_gscore>
-7.79902669362842

> <r_i_glide_lipo>
-3.31282108959758

> <r_i_glide_hbond>
0

> <r_i_glide_metal>
0

> <r_i_glide_rewards>
-0.92798321353627

> <r_i_glide_evdw>
-61.0166168212891

> <r_i_glide_ecoul>
-10.3300046920776

> <r_i_glide_erotb>
1.04210915438152

> <r_i_glide_esite>
0

> <r_i_glide_emodel>
-100.812041954806

> <r_i_glide_energy>
-71.3466215133667

> <r_i_glide_einternal>
7.81318330764771

> <i_i_glide_confnum>
193

> <i_i_glide_posenum>
263

> <r_i_glide_eff_state_penalty>
0

> <s_user_duplicate_titles>
CHEMBL1952_lig251,625027

> <i_f3d_flags>
0

> <s_m_subgroup_title>
dock_pv

> <s_m_subgroupid>
dock_pv

> <b_m_subgroup_collapsed>
1

$$$$
CHEMBL1952_lig430
                    3D
 Schrodinger Suite 2021-1.
 57 60  0  0  1  0            999 V2000
   16.5487   13.3639   35.4692 N   0  0  0  0  0  0
   17.5940   12.5283   35.0974 C   0  0  0  0  0  0
   18.3350   12.9929   34.0431 N   0  0  0  0  0  0
   17.0898   14.9739   33.7564 C   0  0  0  0  0  0
   15.6720   13.0145   36.5931 C   0  0  2  0  0  0
   16.3625   14.5630   34.8133 C   0  0  0  0  0  0
   18.2026   14.1365   33.3183 C   0  0  0  0  0  0
   15.7929   16.3038   32.0305 N   0  0  0  0  0  0
   14.0556    7.5599   36.3696 P   0  0  0  0  0  0
   15.5376   11.6366   36.7941 O   0  0  0  0  0  0
   14.2215   13.4966   36.5633 C   0  0  0  0  0  0
   14.6825   17.1512   32.0050 C   0  0  0  0  0  0
   16.8528   16.3001   33.0528 C   0  0  0  0  0  0
   14.0437   17.4932   30.7846 C   0  0  0  0  0  0
   14.3745   16.8391   29.5964 N   0  0  0  0  0  0
   14.3884   11.3147   37.5697 C   0  0  1  0  0  0
   13.5996   12.6301   37.6472 C   0  0  1  0  0  0
   13.6689   10.1539   36.8609 C   0  0  0  0  0  0
   17.9112   11.4476   35.5913 O   0  0  0  0  0  0
   14.5051    9.0124   36.9519 O   0  0  0  0  0  0
   12.5585    7.3504   36.9443 O   0  0  0  0  0  0
   13.7898    7.8304   34.7931 O   0  0  0  0  0  0
   16.1690   15.5517   30.8254 C   0  0  0  0  0  0
   14.9915    6.4494   36.6796 O   0  0  0  0  0  0
   18.9752   14.4090   32.4056 O   0  0  0  0  0  0
   15.6773   16.1747   29.5016 C   0  0  0  0  0  0
   13.6870   13.2526   38.9170 O   0  0  0  0  0  0
   13.9931   17.3346   28.2755 C   0  0  0  0  0  0
   14.2075   17.7121   33.1984 C   0  0  0  0  0  0
   13.0011   18.4369   30.8045 C   0  0  0  0  0  0
   12.5902   19.0274   31.9918 C   0  0  0  0  0  0
   13.1642   18.6276   33.1892 C   0  0  0  0  0  0
   19.1058   12.4041   33.7555 H   0  0  0  0  0  0
   16.1914   13.4472   37.4457 H   0  0  0  0  0  0
   15.5555   15.1643   35.2005 H   0  0  0  0  0  0
   13.7930   13.2691   35.5910 H   0  0  0  0  0  0
   14.1433   14.5676   36.7564 H   0  0  0  0  0  0
   16.6553   17.0487   33.8177 H   0  0  0  0  0  0
   17.7907   16.6281   32.6117 H   0  0  0  0  0  0
   14.6945   10.9826   38.5628 H   0  0  0  0  0  0
   12.5437   12.4619   37.4261 H   0  0  0  0  0  0
   13.4497   10.4036   35.8221 H   0  0  0  0  0  0
   12.7196    9.9483   37.3568 H   0  0  0  0  0  0
   12.3464    6.4196   37.1499 H   0  0  0  0  0  0
   12.9279    8.2556   34.6122 H   0  0  0  0  0  0
   17.2527   15.4459   30.7584 H   0  0  0  0  0  0
   15.7922   14.5352   30.9225 H   0  0  0  0  0  0
   16.4188   16.8797   29.1285 H   0  0  0  0  0  0
   15.6152   15.3771   28.7590 H   0  0  0  0  0  0
   13.4240   14.1723   38.8208 H   0  0  0  0  0  0
   14.5337   18.2505   28.0381 H   0  0  0  0  0  0
   14.1919   16.6022   27.4942 H   0  0  0  0  0  0
   12.9283   17.5518   28.2232 H   0  0  0  0  0  0
   14.6313   17.4424   34.1528 H   0  0  0  0  0  0
   12.4844   18.7314   29.9043 H   0  0  0  0  0  0
   11.7848   19.7482   31.9878 H   0  0  0  0  0  0
   12.7942   19.0279   34.1166 H   0  0  0  0  0  0
  1  2  1  0  0  0
  1  5  1  0  0  0
  1  6  1  0  0  0
  2  3  1  0  0  0
  2 19  2  0  0  0
  3  7  1  0  0  0
  3 33  1  0  0  0
  4  6  2  0  0  0
  4  7  1  0  0  0
  4 13  1  0  0  0
  5 10  1  0  0  0
  5 11  1  0  0  0
  5 34  1  0  0  0
  6 35  1  0  0  0
  7 25  2  0  0  0
  8 13  1  0  0  0
  8 12  1  0  0  0
  8 23  1  0  0  0
  9 20  1  0  0  0
  9 21  1  0  0  0
  9 22  1  0  0  0
  9 24  2  0  0  0
 10 16  1  0  0  0
 11 17  1  0  0  0
 11 36  1  0  0  0
 11 37  1  0  0  0
 12 14  1  0  0  0
 12 29  2  0  0  0
 13 38  1  0  0  0
 13 39  1  0  0  0
 14 30  2  0  0  0
 14 15  1  0  0  0
 15 26  1  0  0  0
 15 28  1  0  0  0
 16 18  1  0  0  0
 16 17  1  0  0  0
 16 40  1  0  0  0
 17 27  1  0  0  0
 17 41  1  0  0  0
 18 20  1  0  0  0
 18 42  1  0  0  0
 18 43  1  0  0  0
 21 44  1  0  0  0
 22 45  1  0  0  0
 23 26  1  0  0  0
 23 46  1  0  0  0
 23 47  1  0  0  0
 26 48  1  0  0  0
 26 49  1  0  0  0
 27 50  1  0  0  0
 28 51  1  0  0  0
 28 52  1  0  0  0
 28 53  1  0  0  0
 29 32  1  0  0  0
 29 54  1  0  0  0
 30 31  1  0  0  0
 30 55  1  0  0  0
 31 32  2  0  0  0
 31 56  1  0  0  0
 32 57  1  0  0  0
M  END
> <s_m_entry_id>
41157

> <s_m_entry_name>
dock_pv.274

> <s_m_Source_Path>
/home/csk/Desktop/cluster/DUD-E-result/tysy

> <s_m_Source_File>
dock_pv.maegz

> <i_m_Source_File_Index>
274

> <chembl_id>
CHEMBL3392217

> <chembl_pref_name>
None

> <i_lp_mmshare_version>
53161

> <r_lp_tautomer_probability>
0.999537046341301

> <s_lp_Force_Field>
OPLS_2005

> <r_lp_Energy>
36.428463

> <b_lp_Chiralities_Consistent>
1

> <s_lp_Variant>
CHEMBL1952_lig430-1

> <s_i_glide_gridfile>
glide-grid_1syn

> <i_i_glide_lignum>
830

> <i_i_glide_rotatable_bonds>
9

> <r_i_docking_score>
-7.79640629640925

> <r_i_glide_ligand_efficiency>
-0.243637696762789

> <r_i_glide_ligand_efficiency_sa>
-0.773501471387138

> <r_i_glide_ligand_efficiency_ln>
-1.74582789177511

> <r_i_glide_gscore>
-7.79640629640925

> <r_i_glide_lipo>
-3.06241288363667

> <r_i_glide_hbond>
0

> <r_i_glide_metal>
0

> <r_i_glide_rewards>
-1.87645550795709

> <r_i_glide_evdw>
-49.860221862793

> <r_i_glide_ecoul>
-5.79487085342407

> <r_i_glide_erotb>
0.55214164619968

> <r_i_glide_esite>
-0.0474378298619146

> <r_i_glide_emodel>
-74.9443300640879

> <r_i_glide_energy>
-55.655092716217

> <r_i_glide_einternal>
10.8642911911011

> <i_i_glide_confnum>
142

> <i_i_glide_posenum>
227

> <r_i_glide_eff_state_penalty>
0

> <s_user_duplicate_titles>
CHEMBL1952_lig430

> <i_f3d_flags>
0

> <s_m_subgroup_title>
dock_pv

> <s_m_subgroupid>
dock_pv

> <b_m_subgroup_collapsed>
1

$$$$
CHEMBL1952_lig261
                    3D
 Schrodinger Suite 2021-1.
 58 60  0  0  1  0            999 V2000
   14.4091   16.7654   29.4350 N   0  0  0  0  0  0
   13.6113   17.5434   30.0616 C   0  0  0  0  0  0
   13.5706   17.6857   31.4335 N   0  0  0  0  0  0
   15.3615   15.9808   30.1015 C   0  0  0  0  0  0
   16.1638   15.2292   29.5542 O   0  0  0  0  0  0
   15.3837   16.1229   31.6181 C   0  0  0  0  0  0
   14.4600   16.9716   32.2396 C   0  0  0  0  0  0
   14.4517   17.1195   33.6200 C   0  0  0  0  0  0
   15.3921   16.4361   34.3884 C   0  0  0  0  0  0
   16.3553   15.6090   33.7830 C   0  0  0  0  0  0
   16.3341   15.4403   32.3928 C   0  0  0  0  0  0
   17.4873   14.9700   34.6014 C   0  0  0  0  0  0
   17.3430   13.5178   34.7936 N   0  0  0  0  0  0
   16.2651   13.0241   35.5912 C   0  0  0  0  0  0
   15.8481   11.6802   35.5909 C   0  0  0  0  0  0
   14.7729   11.2551   36.3740 C   0  0  0  0  0  0
   14.0984   12.1970   37.1570 C   0  0  0  0  0  0
   14.4911   13.4987   37.1912 N   0  0  0  0  0  0
   15.5492   13.8758   36.4439 C   0  0  0  0  0  0
   12.9500   11.7904   38.0487 C   0  0  0  0  0  0
   12.7102   10.6039   38.2788 O   0  0  0  0  0  0
   12.2617   12.8032   38.6068 N   0  0  0  0  0  0
   11.2547   12.6861   39.6603 C   0  0  1  0  0  0
   11.9005   13.1772   40.9896 C   0  0  0  0  0  0
    9.9538   13.4280   39.2793 C   0  0  0  0  0  0
    9.5161   13.0483   38.0468 O   0  0  0  0  0  0
    9.3921   14.2278   39.9970 O   0  0  0  0  0  0
   13.1914   12.4070   41.3738 C   0  0  0  0  0  0
   13.7254   12.7027   42.7734 C   0  0  0  0  0  0
   14.5777   11.7262   43.1910 O   0  0  0  0  0  0
   13.3918   13.6691   43.4569 O   0  0  0  0  0  0
   12.6400   18.3849   29.2676 C   0  0  0  0  0  0
   18.2744   12.6588   34.0329 C   0  0  0  0  0  0
   18.8802   11.5563   34.8022 C   0  0  0  0  0  0
   19.3608   10.6279   35.4317 C   0  0  0  0  0  0
   12.9285   18.3372   31.8540 H   0  0  0  0  0  0
   13.7422   17.7812   34.0949 H   0  0  0  0  0  0
   15.3918   16.6073   35.4533 H   0  0  0  0  0  0
   17.0745   14.8034   31.9241 H   0  0  0  0  0  0
   18.4211   15.1969   34.0838 H   0  0  0  0  0  0
   17.6060   15.4279   35.5802 H   0  0  0  0  0  0
   16.3290   10.9492   34.9625 H   0  0  0  0  0  0
   14.4672   10.2185   36.3540 H   0  0  0  0  0  0
   15.8301   14.9011   36.5973 H   0  0  0  0  0  0
   12.4721   13.7407   38.2983 H   0  0  0  0  0  0
   10.9666   11.6403   39.7821 H   0  0  0  0  0  0
   12.1481   14.2373   40.9028 H   0  0  0  0  0  0
   11.1720   13.1129   41.7936 H   0  0  0  0  0  0
    8.7205   13.5317   37.8134 H   0  0  0  0  0  0
   13.0027   11.3350   41.3004 H   0  0  0  0  0  0
   13.9924   12.6271   40.6675 H   0  0  0  0  0  0
   14.8483   11.8285   44.1193 H   0  0  0  0  0  0
   12.7535   18.2319   28.1944 H   0  0  0  0  0  0
   11.6091   18.1501   29.5321 H   0  0  0  0  0  0
   12.8019   19.4445   29.4602 H   0  0  0  0  0  0
   17.7920   12.2299   33.1580 H   0  0  0  0  0  0
   19.1179   13.2345   33.6481 H   0  0  0  0  0  0
   19.7919    9.8281   35.9852 H   0  0  0  0  0  0
  1  2  2  0  0  0
  1  4  1  0  0  0
  2  3  1  0  0  0
  2 32  1  0  0  0
  3  7  1  0  0  0
  3 36  1  0  0  0
  4  5  2  0  0  0
  4  6  1  0  0  0
  6 11  1  0  0  0
  6  7  2  0  0  0
  7  8  1  0  0  0
  8  9  2  0  0  0
  8 37  1  0  0  0
  9 10  1  0  0  0
  9 38  1  0  0  0
 10 11  2  0  0  0
 10 12  1  0  0  0
 11 39  1  0  0  0
 12 13  1  0  0  0
 12 40  1  0  0  0
 12 41  1  0  0  0
 13 14  1  0  0  0
 13 33  1  0  0  0
 14 19  1  0  0  0
 14 15  2  0  0  0
 15 16  1  0  0  0
 15 42  1  0  0  0
 16 17  2  0  0  0
 16 43  1  0  0  0
 17 18  1  0  0  0
 17 20  1  0  0  0
 18 19  2  0  0  0
 19 44  1  0  0  0
 20 21  2  0  0  0
 20 22  1  0  0  0
 22 23  1  0  0  0
 22 45  1  0  0  0
 23 24  1  0  0  0
 23 25  1  0  0  0
 23 46  1  0  0  0
 24 28  1  0  0  0
 24 47  1  0  0  0
 24 48  1  0  0  0
 25 26  1  0  0  0
 25 27  2  0  0  0
 26 49  1  0  0  0
 28 29  1  0  0  0
 28 50  1  0  0  0
 28 51  1  0  0  0
 29 30  1  0  0  0
 29 31  2  0  0  0
 30 52  1  0  0  0
 32 53  1  0  0  0
 32 54  1  0  0  0
 32 55  1  0  0  0
 33 34  1  0  0  0
 33 56  1  0  0  0
 33 57  1  0  0  0
 34 35  3  0  0  0
 35 58  1  0  0  0
M  END
> <s_m_entry_id>
41158

> <s_m_entry_name>
dock_pv.275

> <s_m_Source_Path>
/home/csk/Desktop/cluster/DUD-E-result/tysy

> <s_m_Source_File>
dock_pv.maegz

> <i_m_Source_File_Index>
275

> <chembl_id>
CHEMBL291075

> <chembl_pref_name>
None

> <i_lp_mmshare_version>
53161

> <r_lp_tautomer_probability>
0.116051

> <s_lp_Force_Field>
OPLS_2005

> <r_lp_Energy>
21.012325

> <b_lp_Chiralities_Consistent>
1

> <s_lp_Variant>
CHEMBL1952_lig261-2

> <s_i_glide_gridfile>
glide-grid_1syn

> <i_i_glide_lignum>
519

> <i_i_glide_rotatable_bonds>
14

> <r_i_docking_score>
-7.79602184134581

> <r_i_glide_ligand_efficiency>
-0.222743481181309

> <r_i_glide_ligand_efficiency_sa>
-0.72860869624282

> <r_i_glide_ligand_efficiency_ln>
-1.71139981755792

> <r_i_glide_gscore>
-7.79602184134581

> <r_i_glide_lipo>
-3.31840512463957

> <r_i_glide_hbond>
-0.184559498825678

> <r_i_glide_metal>
0

> <r_i_glide_rewards>
-0.85987023674495

> <r_i_glide_evdw>
-59.2256546020508

> <r_i_glide_ecoul>
-10.1988744735718

> <r_i_glide_erotb>
1.06628412535036

> <r_i_glide_esite>
-0.00835720534766777

> <r_i_glide_emodel>
-100.203582817706

> <r_i_glide_energy>
-69.4245290756226

> <r_i_glide_einternal>
5.53972721099854

> <i_i_glide_confnum>
24

> <i_i_glide_posenum>
292

> <r_i_glide_eff_state_penalty>
0

> <s_user_duplicate_titles>
CHEMBL1952_lig261,CHEMBL1952_lig261,62109

> <i_f3d_flags>
0

> <s_m_subgroup_title>
dock_pv

> <s_m_subgroupid>
dock_pv

> <b_m_subgroup_collapsed>
1

$$$$
CHEMBL1952_lig459
                    3D
 Schrodinger Suite 2021-1.
 47 51  0  0  1  0            999 V2000
   18.7236   11.5017   34.7950 C   0  0  0  0  0  0
   12.6646    9.5408   38.6207 C   0  0  0  0  0  0
   15.5320   10.2743   36.2802 C   0  0  0  0  0  0
   12.5615   10.6685   39.3242 F   0  0  0  0  0  0
   19.0508   14.2807   34.3910 S   0  0  0  0  0  0
   18.1971   12.7777   34.9126 C   0  0  0  0  0  0
   18.5911   15.4171   35.1910 O   0  0  0  0  0  0
   11.4774    9.3085   38.0610 F   0  0  0  0  0  0
   15.0868    9.0235   35.8848 C   0  0  0  0  0  0
   17.8414   10.5127   35.2284 C   0  0  0  0  0  0
   14.6952   10.6453   37.3375 C   0  0  0  0  0  0
   16.6427   11.0205   35.7252 C   0  0  0  0  0  0
   13.7653    9.6379   37.5771 C   0  0  0  0  0  0
   14.0111    8.6410   36.6487 N   0  0  0  0  0  0
   20.4784   13.9680   34.3221 O   0  0  0  0  0  0
   13.2966    7.3820   36.5058 C   0  0  0  0  0  0
   16.5997   12.7599   35.5920 S   0  0  0  0  0  0
   12.9101    8.5581   39.4866 F   0  0  0  0  0  0
   12.5018   19.2027   31.7447 O   0  0  0  0  0  0
   15.7919   15.7744   30.5577 C   0  0  0  0  0  0
   14.4900   17.2521   33.8506 C   0  0  0  0  0  0
   15.3251   16.4893   32.8719 C   0  0  0  0  0  0
   13.7006   17.4613   29.6858 C   0  0  0  0  0  0
   13.3013   18.3139   32.0324 C   0  0  0  0  0  0
   17.2342   15.0409   32.3777 C   0  0  0  0  0  0
   14.5723   17.1522   35.0722 O   0  0  0  0  0  0
   16.8946   15.0258   31.0267 C   0  0  0  0  0  0
   16.3952   15.7001   33.2881 C   0  0  0  0  0  0
   13.5777   18.1267   33.3509 O   0  0  0  0  0  0
   13.9989   17.4243   31.0489 C   0  0  0  0  0  0
   15.0409   16.5483   31.4826 C   0  0  0  0  0  0
   14.4040   16.6625   28.7905 C   0  0  0  0  0  0
   15.4375   15.8280   29.1974 C   0  0  0  0  0  0
   18.4516   14.4411   32.7372 N   0  0  0  0  0  0
   19.7063   11.2962   34.3931 H   0  0  0  0  0  0
   15.4464    8.3723   35.1032 H   0  0  0  0  0  0
   18.0781    9.4601   35.1845 H   0  0  0  0  0  0
   14.7696   11.5729   37.8906 H   0  0  0  0  0  0
   12.3466    7.5695   36.0037 H   0  0  0  0  0  0
   13.1111    6.9390   37.4852 H   0  0  0  0  0  0
   13.8757    6.6825   35.9041 H   0  0  0  0  0  0
   12.9314   18.1223   29.3064 H   0  0  0  0  0  0
   17.5082   14.4921   30.3141 H   0  0  0  0  0  0
   16.5626   15.6478   34.3460 H   0  0  0  0  0  0
   14.1871   16.7225   27.7346 H   0  0  0  0  0  0
   15.9909   15.2457   28.4745 H   0  0  0  0  0  0
   18.9994   13.9784   32.0242 H   0  0  0  0  0  0
  1  6  2  0  0  0
  1 10  1  0  0  0
  1 35  1  0  0  0
  2  4  1  0  0  0
  2 13  1  0  0  0
  2  8  1  0  0  0
  2 18  1  0  0  0
  3 11  1  0  0  0
  3 12  1  0  0  0
  3  9  2  0  0  0
  5  7  2  0  0  0
  5 15  2  0  0  0
  5  6  1  0  0  0
  5 34  1  0  0  0
  6 17  1  0  0  0
  9 14  1  0  0  0
  9 36  1  0  0  0
 10 12  2  0  0  0
 10 37  1  0  0  0
 11 13  2  0  0  0
 11 38  1  0  0  0
 12 17  1  0  0  0
 13 14  1  0  0  0
 14 16  1  0  0  0
 16 39  1  0  0  0
 16 40  1  0  0  0
 16 41  1  0  0  0
 19 24  2  0  0  0
 20 31  1  0  0  0
 20 33  2  0  0  0
 20 27  1  0  0  0
 21 26  2  0  0  0
 21 22  1  0  0  0
 21 29  1  0  0  0
 22 28  2  0  0  0
 22 31  1  0  0  0
 23 32  2  0  0  0
 23 30  1  0  0  0
 23 42  1  0  0  0
 24 30  1  0  0  0
 24 29  1  0  0  0
 25 27  2  0  0  0
 25 28  1  0  0  0
 25 34  1  0  0  0
 27 43  1  0  0  0
 28 44  1  0  0  0
 30 31  2  0  0  0
 32 33  1  0  0  0
 32 45  1  0  0  0
 33 46  1  0  0  0
 34 47  1  0  0  0
M  END
> <s_m_entry_id>
41159

> <s_m_entry_name>
dock_pv.276

> <s_m_Source_Path>
/home/csk/Desktop/cluster/DUD-E-result/tysy

> <s_m_Source_File>
dock_pv.maegz

> <i_m_Source_File_Index>
276

> <chembl_id>
CHEMBL2323362

> <chembl_pref_name>
None

> <i_lp_mmshare_version>
53161

> <r_lp_tautomer_probability>
1

> <s_lp_Force_Field>
OPLS_2005

> <r_lp_Energy>
33.746599

> <b_lp_Chiralities_Consistent>
1

> <s_lp_Variant>
CHEMBL1952_lig459-1

> <s_i_glide_gridfile>
glide-grid_1syn

> <i_i_glide_lignum>
889

> <i_i_glide_rotatable_bonds>
5

> <r_i_docking_score>
-7.79553736043847

> <r_i_glide_ligand_efficiency>
-0.229280510601131

> <r_i_glide_ligand_efficiency_sa>
-0.742779847073249

> <r_i_glide_ligand_efficiency_ln>
-1.7222528603374

> <r_i_glide_gscore>
-7.79553736043847

> <r_i_glide_lipo>
-3.94491222884594

> <r_i_glide_hbond>
0

> <r_i_glide_metal>
0

> <r_i_glide_rewards>
-1.08339647596487

> <r_i_glide_evdw>
-56.8190498352051

> <r_i_glide_ecoul>
-0.901605188846588

> <r_i_glide_erotb>
0.319045942264028

> <r_i_glide_esite>
-0.110081327804448

> <r_i_glide_emodel>
-84.9007635888472

> <r_i_glide_energy>
-57.7206550240517

> <r_i_glide_einternal>
1.14073431491852

> <i_i_glide_confnum>
13

> <i_i_glide_posenum>
160

> <r_i_glide_eff_state_penalty>
0

> <s_user_duplicate_titles>
CHEMBL1952_lig459

> <i_f3d_flags>
0

> <s_m_subgroup_title>
dock_pv

> <s_m_subgroupid>
dock_pv

> <b_m_subgroup_collapsed>
1

$$$$
CHEMBL1952_lig15
                    3D
 Schrodinger Suite 2021-1.
 55 57  0  0  1  0            999 V2000
   13.0978   17.8344   31.4937 N   0  0  0  0  0  0
   12.8994   17.5785   30.1888 C   0  0  0  0  0  0
   11.8324   18.2286   29.5982 N   0  0  0  0  0  0
   13.6207   16.7460   29.4050 N   0  0  0  0  0  0
   14.6531   16.1061   29.9996 C   0  0  0  0  0  0
   15.3652   15.2428   29.1732 N   0  0  0  0  0  0
   14.9921   16.2927   31.3638 C   0  0  0  0  0  0
   16.0478   15.6801   31.9862 N   0  0  0  0  0  0
   16.2448   15.9668   33.3039 C   0  0  0  0  0  0
   15.3909   16.8443   33.9877 C   0  0  0  0  0  0
   14.3432   17.4571   33.3914 N   0  0  0  0  0  0
   14.1437   17.1951   32.0752 C   0  0  0  0  0  0
   17.5053   15.3729   33.9510 C   0  0  0  0  0  0
   17.4635   13.9173   34.1551 N   0  0  0  0  0  0
   18.5447   13.1395   33.5384 C   0  0  0  0  0  0
   14.9247   12.1914   37.1001 C   0  0  0  0  0  0
   15.7937   11.3863   36.3571 C   0  0  0  0  0  0
   16.6577   11.9528   35.4207 C   0  0  0  0  0  0
   16.6721   13.3393   35.1908 C   0  0  0  0  0  0
   15.8452   14.1358   35.9927 C   0  0  0  0  0  0
   14.9819   13.5791   36.9221 C   0  0  0  0  0  0
   13.9770   11.5654   38.0964 C   0  0  0  0  0  0
   14.1425   10.4132   38.5012 O   0  0  0  0  0  0
   12.9675   12.3515   38.5096 N   0  0  0  0  0  0
   11.9537   12.0260   39.5159 C   0  0  2  0  0  0
   10.8294   13.0829   39.4715 C   0  0  0  0  0  0
   10.1979   13.0581   38.2641 O   0  0  0  0  0  0
   10.5549   13.8252   40.3913 O   0  0  0  0  0  0
   12.5936   11.8671   40.9252 C   0  0  0  0  0  0
   13.5026   13.0330   41.3870 C   0  0  0  0  0  0
   13.8128   12.9672   42.8771 C   0  0  0  0  0  0
   13.3913   13.7763   43.6992 O   0  0  0  0  0  0
   14.5898   11.8941   43.1909 O   0  0  0  0  0  0
   11.6954   18.1276   28.6069 H   0  0  0  0  0  0
   11.2410   18.8439   30.1458 H   0  0  0  0  0  0
   16.1210   14.6968   29.5607 H   0  0  0  0  0  0
   15.0550   15.1225   28.2210 H   0  0  0  0  0  0
   15.4950   17.0883   35.0293 H   0  0  0  0  0  0
   17.7140   15.8280   34.9138 H   0  0  0  0  0  0
   18.3581   15.6618   33.3328 H   0  0  0  0  0  0
   18.1911   12.1940   33.1312 H   0  0  0  0  0  0
   19.0243   13.6778   32.7199 H   0  0  0  0  0  0
   19.3142   12.9075   34.2773 H   0  0  0  0  0  0
   15.7976   10.3122   36.4837 H   0  0  0  0  0  0
   17.2884   11.2887   34.8514 H   0  0  0  0  0  0
   15.8491   15.2072   35.9243 H   0  0  0  0  0  0
   14.3749   14.2559   37.5060 H   0  0  0  0  0  0
   12.8415   13.2407   38.0513 H   0  0  0  0  0  0
   11.4990   11.0731   39.2388 H   0  0  0  0  0  0
    9.5054   13.7219   38.2245 H   0  0  0  0  0  0
   13.1833   10.9484   40.9410 H   0  0  0  0  0  0
   11.8043   11.6912   41.6511 H   0  0  0  0  0  0
   13.0265   13.9929   41.1890 H   0  0  0  0  0  0
   14.4375   13.0299   40.8289 H   0  0  0  0  0  0
   14.7754   11.8333   44.1429 H   0  0  0  0  0  0
  1 12  2  0  0  0
  1  2  1  0  0  0
  2  3  1  0  0  0
  2  4  2  0  0  0
  3 34  1  0  0  0
  3 35  1  0  0  0
  4  5  1  0  0  0
  5  7  2  0  0  0
  5  6  1  0  0  0
  6 36  1  0  0  0
  6 37  1  0  0  0
  7 12  1  0  0  0
  7  8  1  0  0  0
  8  9  2  0  0  0
  9 10  1  0  0  0
  9 13  1  0  0  0
 10 11  2  0  0  0
 10 38  1  0  0  0
 11 12  1  0  0  0
 13 14  1  0  0  0
 13 39  1  0  0  0
 13 40  1  0  0  0
 14 19  1  0  0  0
 14 15  1  0  0  0
 15 41  1  0  0  0
 15 42  1  0  0  0
 15 43  1  0  0  0
 16 22  1  0  0  0
 16 17  2  0  0  0
 16 21  1  0  0  0
 17 18  1  0  0  0
 17 44  1  0  0  0
 18 19  2  0  0  0
 18 45  1  0  0  0
 19 20  1  0  0  0
 20 21  2  0  0  0
 20 46  1  0  0  0
 21 47  1  0  0  0
 22 23  2  0  0  0
 22 24  1  0  0  0
 24 25  1  0  0  0
 24 48  1  0  0  0
 25 29  1  0  0  0
 25 26  1  0  0  0
 25 49  1  0  0  0
 26 28  2  0  0  0
 26 27  1  0  0  0
 27 50  1  0  0  0
 29 30  1  0  0  0
 29 51  1  0  0  0
 29 52  1  0  0  0
 30 31  1  0  0  0
 30 53  1  0  0  0
 30 54  1  0  0  0
 31 32  2  0  0  0
 31 33  1  0  0  0
 33 55  1  0  0  0
M  END
> <s_m_entry_id>
41160

> <s_m_entry_name>
dock_pv.277

> <s_m_Source_Path>
/home/csk/Desktop/cluster/DUD-E-result/tysy

> <s_m_Source_File>
dock_pv.maegz

> <i_m_Source_File_Index>
277

> <chembl_id>
CHEMBL34259

> <chembl_pref_name>
METHOTREXATE

> <i_lp_mmshare_version>
53161

> <r_lp_tautomer_probability>
1

> <s_lp_Force_Field>
OPLS_2005

> <r_lp_Energy>
26.182755

> <b_lp_Chiralities_Consistent>
1

> <s_lp_Variant>
CHEMBL1952_lig15-1

> <s_i_glide_gridfile>
glide-grid_1syn

> <i_i_glide_lignum>
16

> <i_i_glide_rotatable_bonds>
12

> <r_i_docking_score>
-7.79524282148521

> <r_i_glide_ligand_efficiency>
-0.236219479438946

> <r_i_glide_ligand_efficiency_sa>
-0.757682088831081

> <r_i_glide_ligand_efficiency_ln>
-1.73362164189109

> <r_i_glide_gscore>
-7.79524282148521

> <r_i_glide_lipo>
-2.67267128816141

> <r_i_glide_hbond>
-0.283610792344287

> <r_i_glide_metal>
0

> <r_i_glide_rewards>
-1.29574891182018

> <r_i_glide_evdw>
-52.9276237487793

> <r_i_glide_ecoul>
-12.0457611083984

> <r_i_glide_erotb>
0.97238047634632

> <r_i_glide_esite>
-0.062346951806925

> <r_i_glide_emodel>
-91.8127992408802

> <r_i_glide_energy>
-64.9733848571777

> <r_i_glide_einternal>
8.94600486755371

> <i_i_glide_confnum>
333

> <i_i_glide_posenum>
303

> <r_i_glide_eff_state_penalty>
0

> <s_user_duplicate_titles>
CHEMBL1952_lig15,49931

> <i_f3d_flags>
0

> <s_m_subgroup_title>
dock_pv

> <s_m_subgroupid>
dock_pv

> <b_m_subgroup_collapsed>
1

$$$$
CHEMBL1952_lig350
                    3D
 Schrodinger Suite 2021-1.
 55 58  0  0  1  0            999 V2000
   14.7243   16.4840   31.9585 C   0  0  0  0  0  0
   15.7962   15.6434   32.6377 C   0  0  0  0  0  0
   14.6326   16.3274   30.5694 N   0  0  0  0  0  0
   16.5424   14.9498   30.4669 N   0  0  0  0  0  0
   14.8867    7.6293   35.8764 S   0  0  2  0  0  0
   16.7154   14.9353   31.8522 C   0  0  0  0  0  0
   15.4643   15.6128   29.9158 C   0  0  0  0  0  0
   14.1648    7.2794   37.5337 C   0  0  0  0  0  0
   15.4409   13.5946   36.4905 N   0  0  0  0  0  0
   13.7920   14.0731   38.2965 C   0  0  0  0  0  0
   15.0527    9.4239   36.0152 C   0  0  0  0  0  0
   13.3868   13.7783   39.4100 C   0  0  0  0  0  0
   15.8118   15.4915   34.0295 C   0  0  0  0  0  0
   15.3071   12.1935   36.2807 C   0  0  0  0  0  0
   14.0086   17.2145   32.6405 O   0  0  0  0  0  0
   13.8026    7.4298   34.8177 O   0  0  0  0  0  0
   16.6704   14.3239   36.1107 C   0  0  0  0  0  0
   16.7370   14.6227   34.6198 C   0  0  0  0  0  0
   12.9751    6.5479   37.7251 C   0  0  0  0  0  0
   17.7030   14.1566   32.4429 C   0  0  0  0  0  0
   16.2965   10.0196   35.8435 C   0  0  0  0  0  0
   13.9234   10.1887   36.2704 C   0  0  0  0  0  0
   16.4221   11.3949   35.9860 C   0  0  0  0  0  0
   14.0538   11.5634   36.3920 C   0  0  0  0  0  0
   14.2921   14.3942   36.9390 C   0  0  0  0  0  0
   17.7137   14.0016   33.8287 C   0  0  0  0  0  0
   15.2382   15.4177   28.4419 C   0  0  0  0  0  0
   14.8757    7.7447   38.6441 C   0  0  0  0  0  0
   12.1677    5.9770   36.5690 C   0  0  0  0  0  0
   12.5234    6.3115   39.0291 C   0  0  0  0  0  0
   14.4155    7.5031   39.9351 C   0  0  0  0  0  0
   13.2380    6.7853   40.1286 C   0  0  0  0  0  0
   13.0369   13.5059   40.3793 H   0  0  0  0  0  0
   15.0746   15.9884   34.6463 H   0  0  0  0  0  0
   17.1335   14.3700   29.8926 H   0  0  0  0  0  0
   17.5662   13.7792   36.3936 H   0  0  0  0  0  0
   16.7348   15.2704   36.6471 H   0  0  0  0  0  0
   18.4197   13.6168   31.8386 H   0  0  0  0  0  0
   17.1680    9.4338   35.5996 H   0  0  0  0  0  0
   12.9538    9.7222   36.3693 H   0  0  0  0  0  0
   17.4084   11.8122   35.8713 H   0  0  0  0  0  0
   13.1514   12.1216   36.5791 H   0  0  0  0  0  0
   14.5859   15.4319   36.9557 H   0  0  0  0  0  0
   13.4681   14.3160   36.2288 H   0  0  0  0  0  0
   18.4518   13.3491   34.2734 H   0  0  0  0  0  0
   14.5921   16.1892   28.0201 H   0  0  0  0  0  0
   16.1849   15.4282   27.9110 H   0  0  0  0  0  0
   14.7662   14.4529   28.2581 H   0  0  0  0  0  0
   15.7904    8.3011   38.5103 H   0  0  0  0  0  0
   11.3959    5.2809   36.8994 H   0  0  0  0  0  0
   11.6996    6.7741   35.9915 H   0  0  0  0  0  0
   12.8205    5.4291   35.8918 H   0  0  0  0  0  0
   11.6158    5.7495   39.1963 H   0  0  0  0  0  0
   14.9780    7.8688   40.7804 H   0  0  0  0  0  0
   12.8802    6.5923   41.1294 H   0  0  0  0  0  0
  1 15  2  0  0  0
  1  2  1  0  0  0
  1  3  1  0  0  0
  2 13  2  0  0  0
  2  6  1  0  0  0
  3  7  2  0  0  0
  4  6  1  0  0  0
  4 35  1  0  0  0
  4  7  1  0  0  0
  5 11  1  0  0  0
  5  8  1  0  0  0
  5 16  2  0  0  0
  6 20  2  0  0  0
  7 27  1  0  0  0
  8 19  2  0  0  0
  8 28  1  0  0  0
  9 17  1  0  0  0
  9 14  1  0  0  0
  9 25  1  0  0  0
 10 25  1  0  0  0
 10 12  3  0  0  0
 11 22  2  0  0  0
 11 21  1  0  0  0
 12 33  1  0  0  0
 13 34  1  0  0  0
 13 18  1  0  0  0
 14 23  1  0  0  0
 14 24  2  0  0  0
 17 36  1  0  0  0
 17 37  1  0  0  0
 17 18  1  0  0  0
 18 26  2  0  0  0
 19 29  1  0  0  0
 19 30  1  0  0  0
 20 26  1  0  0  0
 20 38  1  0  0  0
 21 23  2  0  0  0
 21 39  1  0  0  0
 22 24  1  0  0  0
 22 40  1  0  0  0
 23 41  1  0  0  0
 24 42  1  0  0  0
 25 43  1  0  0  0
 25 44  1  0  0  0
 26 45  1  0  0  0
 27 46  1  0  0  0
 27 47  1  0  0  0
 27 48  1  0  0  0
 28 31  2  0  0  0
 28 49  1  0  0  0
 29 50  1  0  0  0
 29 51  1  0  0  0
 29 52  1  0  0  0
 30 32  2  0  0  0
 30 53  1  0  0  0
 31 32  1  0  0  0
 31 54  1  0  0  0
 32 55  1  0  0  0
M  END
> <s_m_entry_id>
41161

> <s_m_entry_name>
dock_pv.278

> <s_m_Source_Path>
/home/csk/Desktop/cluster/DUD-E-result/tysy

> <s_m_Source_File>
dock_pv.maegz

> <i_m_Source_File_Index>
278

> <chembl_id>
CHEMBL159209

> <chembl_pref_name>
None

> <i_lp_mmshare_version>
53161

> <r_lp_tautomer_probability>
0.116051

> <s_lp_Force_Field>
OPLS_2005

> <r_lp_Energy>
20.786649

> <b_lp_Chiralities_Consistent>
1

> <s_lp_Variant>
CHEMBL1952_lig350-4

> <s_i_glide_gridfile>
glide-grid_1syn

> <i_i_glide_lignum>
648

> <i_i_glide_rotatable_bonds>
7

> <r_i_docking_score>
-7.79517023629025

> <r_i_glide_ligand_efficiency>
-0.24359906988407

> <r_i_glide_ligand_efficiency_sa>
-0.773378838691454

> <r_i_glide_ligand_efficiency_ln>
-1.74555110422074

> <r_i_glide_gscore>
-7.79517023629025

> <r_i_glide_lipo>
-3.39150487632886

> <r_i_glide_hbond>
-0.299665051851953

> <r_i_glide_metal>
0

> <r_i_glide_rewards>
-1.60211666453087

> <r_i_glide_evdw>
-48.4899063110352

> <r_i_glide_ecoul>
-5.29739904403687

> <r_i_glide_erotb>
0.717221528578715

> <r_i_glide_esite>
0

> <r_i_glide_emodel>
-73.3624807640973

> <r_i_glide_energy>
-53.787305355072

> <r_i_glide_einternal>
9.69847679138184

> <i_i_glide_confnum>
99

> <i_i_glide_posenum>
2

> <r_i_glide_eff_state_penalty>
0

> <s_user_duplicate_titles>
CHEMBL1952_lig350,CHEMBL1952_lig350

> <i_f3d_flags>
0

> <s_m_subgroup_title>
dock_pv

> <s_m_subgroupid>
dock_pv

> <b_m_subgroup_collapsed>
1

$$$$
CHEMBL1952_lig22
                    3D
 Schrodinger Suite 2021-1.
 31 33  0  0  1  0            999 V2000
   13.6372   18.7339   32.6785 N   0  0  0  0  0  0
   13.1163   18.6164   31.4060 C   0  0  0  0  0  0
   13.4896   17.6590   30.6226 N   0  0  0  0  0  0
   14.6270   17.9846   33.2520 C   0  0  0  0  0  0
   15.1175   16.9672   32.3263 C   0  0  0  0  0  0
   14.4880   16.8564   31.0917 C   0  0  0  0  0  0
   15.0893   15.8489   30.3955 N   0  0  0  0  0  0
   16.1131   15.3260   31.1515 C   0  0  0  0  0  0
   16.1585   16.0167   32.3653 C   0  0  0  0  0  0
   16.9917   14.2261   30.6112 C   0  0  0  0  0  0
   17.4104   15.8284   33.5912 S   0  0  0  0  0  0
   12.1920   19.5843   30.9849 N   0  0  0  0  0  0
   14.9941   18.2211   34.3916 O   0  0  0  0  0  0
   16.7600   14.5454   34.6060 C   0  0  0  0  0  0
   17.5063   13.3800   34.7846 C   0  0  0  0  0  0
   17.0096   12.3549   35.5887 C   0  0  0  0  0  0
   15.7750   12.4929   36.2240 C   0  0  0  0  0  0
   15.0341   13.6726   36.0600 C   0  0  0  0  0  0
   15.5317   14.6976   35.2522 C   0  0  0  0  0  0
   13.5033   13.8892   36.8359 Cl  0  0  0  0  0  0
   15.1959   11.1893   37.2019 Cl  0  0  0  0  0  0
   13.3069   19.4849   33.2701 H   0  0  0  0  0  0
   14.8436   15.5662   29.4593 H   0  0  0  0  0  0
   17.4703   13.6553   31.4083 H   0  0  0  0  0  0
   16.4387   13.5079   30.0048 H   0  0  0  0  0  0
   17.7911   14.6301   29.9909 H   0  0  0  0  0  0
   11.6395   19.3959   30.1593 H   0  0  0  0  0  0
   11.6415   20.0628   31.6813 H   0  0  0  0  0  0
   18.4625   13.2636   34.2931 H   0  0  0  0  0  0
   17.5879   11.4519   35.7181 H   0  0  0  0  0  0
   14.9642   15.6082   35.1303 H   0  0  0  0  0  0
  1  2  1  0  0  0
  1  4  1  0  0  0
  1 22  1  0  0  0
  2 12  1  0  0  0
  2  3  2  0  0  0
  3  6  1  0  0  0
  4 13  2  0  0  0
  4  5  1  0  0  0
  5  6  2  0  0  0
  5  9  1  0  0  0
  6  7  1  0  0  0
  7  8  1  0  0  0
  7 23  1  0  0  0
  8 10  1  0  0  0
  8  9  2  0  0  0
  9 11  1  0  0  0
 10 24  1  0  0  0
 10 25  1  0  0  0
 10 26  1  0  0  0
 11 14  1  0  0  0
 12 27  1  0  0  0
 12 28  1  0  0  0
 14 15  2  0  0  0
 14 19  1  0  0  0
 15 16  1  0  0  0
 15 29  1  0  0  0
 16 17  2  0  0  0
 16 30  1  0  0  0
 17 18  1  0  0  0
 17 21  1  0  0  0
 18 19  2  0  0  0
 18 20  1  0  0  0
 19 31  1  0  0  0
M  END
> <s_m_entry_id>
41162

> <s_m_entry_name>
dock_pv.279

> <s_m_Source_Path>
/home/csk/Desktop/cluster/DUD-E-result/tysy

> <s_m_Source_File>
dock_pv.maegz

> <i_m_Source_File_Index>
279

> <chembl_id>
CHEMBL400485

> <chembl_pref_name>
None

> <i_lp_mmshare_version>
53161

> <r_lp_tautomer_probability>
1

> <s_lp_Force_Field>
OPLS_2005

> <r_lp_Energy>
14.368954

> <b_lp_Chiralities_Consistent>
1

> <s_lp_Variant>
CHEMBL1952_lig22-1

> <s_i_glide_gridfile>
glide-grid_1syn

> <i_i_glide_lignum>
24

> <i_i_glide_rotatable_bonds>
2

> <r_i_docking_score>
-7.78970591587374

> <r_i_glide_ligand_efficiency>
-0.370938376946369

> <r_i_glide_ligand_efficiency_sa>
-1.02339085506633

> <r_i_glide_ligand_efficiency_ln>
-1.92598904711687

> <r_i_glide_gscore>
-7.78970591587374

> <r_i_glide_lipo>
-3.3454488890393

> <r_i_glide_hbond>
-0.0985785404776244

> <r_i_glide_metal>
0

> <r_i_glide_rewards>
-1.79515173150305

> <r_i_glide_evdw>
-43.5212287902832

> <r_i_glide_ecoul>
-4.58577394485474

> <r_i_glide_erotb>
0.325473184923923

> <r_i_glide_esite>
-0.0120724085353184

> <r_i_glide_emodel>
-72.0739825573528

> <r_i_glide_energy>
-48.1070027351379

> <r_i_glide_einternal>
0.411519587039948

> <i_i_glide_confnum>
5

> <i_i_glide_posenum>
264

> <r_i_glide_eff_state_penalty>
0

> <s_user_duplicate_titles>
CHEMBL1952_lig22,419070

> <i_f3d_flags>
0

> <s_m_subgroup_title>
dock_pv

> <s_m_subgroupid>
dock_pv

> <b_m_subgroup_collapsed>
1

$$$$
CHEMBL1952_lig311 
                    3D
 Schrodinger Suite 2021-1.
 47 50  0  0  1  0            999 V2000
   13.5979   18.9003   32.9037 N   0  0  0  0  0  0
   12.8669   18.7637   31.7451 C   0  0  0  0  0  0
   13.1429   17.8322   30.8926 N   0  0  0  0  0  0
   14.6696   18.1573   33.3184 C   0  0  0  0  0  0
   15.0187   17.1444   32.3254 C   0  0  0  0  0  0
   14.2149   17.0421   31.1926 C   0  0  0  0  0  0
   14.7045   16.0318   30.4162 N   0  0  0  0  0  0
   15.8127   15.5103   31.0405 C   0  0  0  0  0  0
   16.0522   16.1875   32.2397 C   0  0  0  0  0  0
   15.2056   18.3877   34.3909 O   0  0  0  0  0  0
   11.8098   19.6672   31.5464 N   0  0  0  0  0  0
   17.2197   15.9740   33.1891 C   0  0  0  0  0  0
   17.0318   14.7860   34.1182 C   0  0  0  0  0  0
   17.8788   13.6842   34.0081 C   0  0  0  0  0  0
   17.6515   12.5566   34.7882 C   0  0  0  0  0  0
   16.5625   12.5039   35.6713 C   0  0  0  0  0  0
   15.7689   13.6537   35.8342 C   0  0  0  0  0  0
   16.0057   14.7885   35.0629 C   0  0  0  0  0  0
   16.2559   11.2029   36.3873 C   0  0  0  0  0  0
   16.9932   10.2287   36.2336 O   0  0  0  0  0  0
   15.1605   11.1831   37.1785 N   0  0  0  0  0  0
   14.6512   10.0966   37.9123 C   0  0  0  0  0  0
   14.8324    8.7541   37.5407 C   0  0  0  0  0  0
   14.3094    7.7336   38.3275 C   0  0  0  0  0  0
   13.5908    8.0354   39.4830 C   0  0  0  0  0  0
   13.3692    9.3721   39.8559 C   0  0  0  0  0  0
   13.9050   10.3931   39.0571 C   0  0  0  0  0  0
   12.5919    9.7260   41.0997 C   0  0  0  0  0  0
   11.8389    8.7078   41.6090 O   0  0  0  0  0  0
   12.6105   10.8542   41.5920 O   0  0  0  0  0  0
   13.3358   19.6326   33.5505 H   0  0  0  0  0  0
   14.3230   15.7427   29.5283 H   0  0  0  0  0  0
   16.3612   14.7044   30.5731 H   0  0  0  0  0  0
   11.1260   19.4962   30.8138 H   0  0  0  0  0  0
   11.4463   20.2099   32.3165 H   0  0  0  0  0  0
   17.4066   16.8594   33.7980 H   0  0  0  0  0  0
   18.1415   15.8289   32.6185 H   0  0  0  0  0  0
   18.6880   13.6744   33.2921 H   0  0  0  0  0  0
   18.3013   11.7052   34.6458 H   0  0  0  0  0  0
   14.9373   13.6810   36.5219 H   0  0  0  0  0  0
   15.3653   15.6519   35.1674 H   0  0  0  0  0  0
   14.6927   12.0651   37.3146 H   0  0  0  0  0  0
   15.3702    8.4881   36.6442 H   0  0  0  0  0  0
   14.4592    6.7041   38.0398 H   0  0  0  0  0  0
   13.2178    7.2087   40.0703 H   0  0  0  0  0  0
   13.7569   11.4299   39.3327 H   0  0  0  0  0  0
   11.8655    7.9388   41.0412 H   0  0  0  0  0  0
  1  2  1  0  0  0
  1  4  1  0  0  0
  1 31  1  0  0  0
  2  3  2  0  0  0
  2 11  1  0  0  0
  3  6  1  0  0  0
  4  5  1  0  0  0
  4 10  2  0  0  0
  5  6  2  0  0  0
  5  9  1  0  0  0
  6  7  1  0  0  0
  7  8  1  0  0  0
  7 32  1  0  0  0
  8  9  2  0  0  0
  8 33  1  0  0  0
  9 12  1  0  0  0
 11 34  1  0  0  0
 11 35  1  0  0  0
 12 13  1  0  0  0
 12 36  1  0  0  0
 12 37  1  0  0  0
 13 14  2  0  0  0
 13 18  1  0  0  0
 14 15  1  0  0  0
 14 38  1  0  0  0
 15 16  2  0  0  0
 15 39  1  0  0  0
 16 17  1  0  0  0
 16 19  1  0  0  0
 17 18  2  0  0  0
 17 40  1  0  0  0
 18 41  1  0  0  0
 19 20  2  0  0  0
 19 21  1  0  0  0
 21 22  1  0  0  0
 21 42  1  0  0  0
 22 23  2  0  0  0
 22 27  1  0  0  0
 23 24  1  0  0  0
 23 43  1  0  0  0
 24 25  2  0  0  0
 24 44  1  0  0  0
 25 26  1  0  0  0
 25 45  1  0  0  0
 26 27  2  0  0  0
 26 28  1  0  0  0
 27 46  1  0  0  0
 28 29  1  0  0  0
 28 30  2  0  0  0
 29 47  1  0  0  0
M  END
> <s_m_entry_id>
41163

> <s_m_entry_name>
dock_pv.280

> <s_m_Source_Path>
/home/csk/Desktop/cluster/DUD-E-result/tysy

> <s_m_Source_File>
dock_pv.maegz

> <i_m_Source_File_Index>
280

> <chembl_id>
CHEMBL4470361

> <chembl_pref_name>
None

> <i_lp_mmshare_version>
53161

> <r_lp_tautomer_probability>
1

> <s_lp_Force_Field>
OPLS_2005

> <r_lp_Energy>
31.585367

> <b_lp_Chiralities_Consistent>
1

> <s_lp_Variant>
CHEMBL1952_lig311 -1

> <s_i_glide_gridfile>
glide-grid_1syn

> <i_i_glide_lignum>
582

> <i_i_glide_rotatable_bonds>
7

> <r_i_docking_score>
-7.78898573017034

> <r_i_glide_ligand_efficiency>
-0.259632857672345

> <r_i_glide_ligand_efficiency_sa>
-0.806739654058574

> <r_i_glide_ligand_efficiency_ln>
-1.76974242569161

> <r_i_glide_gscore>
-7.78898573017034

> <r_i_glide_lipo>
-2.81151654351577

> <r_i_glide_hbond>
-0.429783356358305

> <r_i_glide_metal>
0

> <r_i_glide_rewards>
-1.60345804979908

> <r_i_glide_evdw>
-46.9285583496094

> <r_i_glide_ecoul>
-8.73006534576416

> <r_i_glide_erotb>
0.723912557481141

> <r_i_glide_esite>
-0.0122026186332282

> <r_i_glide_emodel>
-80.1873642873194

> <r_i_glide_energy>
-55.6586236953735

> <r_i_glide_einternal>
5.40937519073486

> <i_i_glide_confnum>
66

> <i_i_glide_posenum>
70

> <r_i_glide_eff_state_penalty>
0

> <s_user_duplicate_titles>
CHEMBL1952_lig311 

> <i_f3d_flags>
0

> <s_m_subgroup_title>
dock_pv

> <s_m_subgroupid>
dock_pv

> <b_m_subgroup_collapsed>
1

$$$$
CHEMBL1952_lig2
                    3D
 Schrodinger Suite 2021-1.
 36 37  0  0  1  0            999 V2000
   15.8667   15.8677   32.3987 N   0  0  0  0  0  0
   16.6378   15.0281   31.6060 C   0  0  0  0  0  0
   16.2257   14.9479   30.3046 N   0  0  0  0  0  0
   16.2583   16.1949   33.7783 C   0  0  2  0  0  0
   14.9121   16.6693   31.7985 C   0  0  0  0  0  0
   14.5634   16.6079   30.4948 C   0  0  0  0  0  0
   15.2508   15.6343   29.6491 C   0  0  0  0  0  0
   18.8795   11.0841   35.1874 P   0  0  0  0  0  0
   17.2971   15.4160   34.3190 O   0  0  0  0  0  0
   15.1605   16.1491   34.8476 C   0  0  0  0  0  0
   16.8390   14.4782   35.2946 C   0  0  1  0  0  0
   15.3369   14.7526   35.4176 C   0  0  1  0  0  0
   17.1657   13.0287   34.8897 C   0  0  0  0  0  0
   17.6272   14.3726   31.9225 O   0  0  0  0  0  0
   18.5039   12.6685   35.1877 O   0  0  0  0  0  0
   18.9159   10.7157   33.6154 O   0  0  0  0  0  0
   17.9777   10.2281   35.9987 O   0  0  0  0  0  0
   15.0190   15.4278   28.4609 O   0  0  0  0  0  0
   20.4471   11.0596   35.5910 O   0  0  0  0  0  0
   13.5297   17.5244   29.8505 C   0  0  0  0  0  0
   14.8505   14.6280   36.7402 O   0  0  0  0  0  0
   16.7452   14.2968   29.7350 H   0  0  0  0  0  0
   16.6402   17.2121   33.6585 H   0  0  0  0  0  0
   14.4500   17.3871   32.4632 H   0  0  0  0  0  0
   14.1620   16.3368   34.4537 H   0  0  0  0  0  0
   15.3814   16.9095   35.5910 H   0  0  0  0  0  0
   17.3400   14.7143   36.2353 H   0  0  0  0  0  0
   14.7772   14.0612   34.7911 H   0  0  0  0  0  0
   16.9925   12.8672   33.8282 H   0  0  0  0  0  0
   16.4920   12.3596   35.4295 H   0  0  0  0  0  0
   19.5269   11.2720   33.0811 H   0  0  0  0  0  0
   21.0284   11.4261   34.8878 H   0  0  0  0  0  0
   13.9549   18.0527   28.9946 H   0  0  0  0  0  0
   12.6688   16.9529   29.5015 H   0  0  0  0  0  0
   13.1646   18.2799   30.5475 H   0  0  0  0  0  0
   15.2892   15.2902   37.2934 H   0  0  0  0  0  0
  1  2  1  0  0  0
  1  4  1  0  0  0
  1  5  1  0  0  0
  2  3  1  0  0  0
  2 14  2  0  0  0
  3  7  1  0  0  0
  3 22  1  0  0  0
  4  9  1  0  0  0
  4 10  1  0  0  0
  4 23  1  0  0  0
  5  6  2  0  0  0
  5 24  1  0  0  0
  6  7  1  0  0  0
  6 20  1  0  0  0
  7 18  2  0  0  0
  8 15  1  0  0  0
  8 16  1  0  0  0
  8 17  2  0  0  0
  8 19  1  0  0  0
  9 11  1  0  0  0
 10 12  1  0  0  0
 10 25  1  0  0  0
 10 26  1  0  0  0
 11 13  1  0  0  0
 11 12  1  0  0  0
 11 27  1  0  0  0
 12 21  1  0  0  0
 12 28  1  0  0  0
 13 15  1  0  0  0
 13 29  1  0  0  0
 13 30  1  0  0  0
 16 31  1  0  0  0
 19 32  1  0  0  0
 20 33  1  0  0  0
 20 34  1  0  0  0
 20 35  1  0  0  0
 21 36  1  0  0  0
M  END
> <s_m_entry_id>
41165

> <s_m_entry_name>
dock_pv.282

> <s_m_Source_Path>
/home/csk/Desktop/cluster/DUD-E-result/tysy

> <s_m_Source_File>
dock_pv.maegz

> <i_m_Source_File_Index>
282

> <chembl_id>
CHEMBL394429

> <chembl_pref_name>
THYMIDINE MONOPHOSPHATE

> <i_lp_mmshare_version>
53161

> <r_lp_tautomer_probability>
0.999537046341301

> <s_lp_Force_Field>
OPLS_2005

> <r_lp_Energy>
13.597217

> <b_lp_Chiralities_Consistent>
1

> <s_lp_Variant>
CHEMBL1952_lig2-1

> <s_i_glide_gridfile>
glide-grid_1syn

> <i_i_glide_lignum>
2

> <i_i_glide_rotatable_bonds>
7

> <r_i_docking_score>
-7.77579274277569

> <r_i_glide_ligand_efficiency>
-0.370275844894081

> <r_i_glide_ligand_efficiency_sa>
-1.0215629793715

> <r_i_glide_ligand_efficiency_ln>
-1.92254904318259

> <r_i_glide_gscore>
-7.77579274277569

> <r_i_glide_lipo>
-2.22818787199795

> <r_i_glide_hbond>
-0.32

> <r_i_glide_metal>
0

> <r_i_glide_rewards>
-2.4765458950846

> <r_i_glide_evdw>
-37.8977279663086

> <r_i_glide_ecoul>
-10.2646780014038

> <r_i_glide_erotb>
0.720380926107488

> <r_i_glide_esite>
-0.0368518032746292

> <r_i_glide_emodel>
-68.9469881020829

> <r_i_glide_energy>
-48.1624059677124

> <r_i_glide_einternal>
12.3791780471802

> <i_i_glide_confnum>
153

> <i_i_glide_posenum>
287

> <r_i_glide_eff_state_penalty>
0

> <s_user_duplicate_titles>
CHEMBL1952_lig2

> <i_f3d_flags>
0

> <s_m_subgroup_title>
dock_pv

> <s_m_subgroupid>
dock_pv

> <b_m_subgroup_collapsed>
1

$$$$
CHEMBL1952_lig20
                    3D
 Schrodinger Suite 2021-1.
 39 41  0  0  1  0            999 V2000
   14.7778   16.9164   31.7528 C   0  0  0  0  0  0
   14.3697   16.4747   30.4689 C   0  0  0  0  0  0
   13.3928   16.9894   29.7284 N   0  0  0  0  0  0
   15.9065   16.1013   32.1385 C   0  0  0  0  0  0
   14.0304   17.9965   32.2851 C   0  0  0  0  0  0
   13.0204   18.5383   31.5594 N   0  0  0  0  0  0
   12.7769   18.0255   30.3338 C   0  0  0  0  0  0
   15.1743   15.4291   30.1138 N   0  0  0  0  0  0
   16.1095   15.1930   31.0901 C   0  0  0  0  0  0
   16.8728   16.3575   33.5910 S   0  0  0  0  0  0
   16.4007   14.1503   35.1597 C   0  0  0  0  0  0
   16.6498   12.8327   35.5944 C   0  0  0  0  0  0
   14.3649   18.4627   33.5270 O   0  0  0  0  0  0
   17.2141   14.7392   34.1904 C   0  0  0  0  0  0
   17.7410   12.1246   35.0578 C   0  0  0  0  0  0
   11.7920   18.6306   29.5909 N   0  0  0  0  0  0
   18.5724   12.7665   34.1288 C   0  0  0  0  0  0
   18.3368   14.0711   33.7259 C   0  0  0  0  0  0
   15.8572   12.1721   36.5171 O   0  0  0  0  0  0
   17.1088   14.0870   30.8483 C   0  0  0  0  0  0
   17.9389   10.8092   35.4510 O   0  0  0  0  0  0
   14.7434   12.8473   37.0907 C   0  0  0  0  0  0
   19.0008   10.0655   34.8485 C   0  0  0  0  0  0
   15.1328   14.8949   29.2594 H   0  0  0  0  0  0
   15.5606   14.7157   35.5323 H   0  0  0  0  0  0
   13.7930   19.1948   33.7855 H   0  0  0  0  0  0
   11.5902   18.2632   28.6783 H   0  0  0  0  0  0
   11.1428   19.2733   30.0339 H   0  0  0  0  0  0
   19.3921   12.2515   33.6674 H   0  0  0  0  0  0
   18.9980   14.5348   33.0081 H   0  0  0  0  0  0
   16.9949   13.2753   31.5658 H   0  0  0  0  0  0
   16.9914   13.6295   29.8678 H   0  0  0  0  0  0
   18.1362   14.4456   30.9016 H   0  0  0  0  0  0
   14.2616   12.1932   37.8172 H   0  0  0  0  0  0
   15.0481   13.7540   37.6152 H   0  0  0  0  0  0
   14.0015   13.1046   36.3331 H   0  0  0  0  0  0
   18.9920    9.0350   35.1913 H   0  0  0  0  0  0
   18.9034   10.0311   33.7620 H   0  0  0  0  0  0
   19.9756   10.4832   35.1056 H   0  0  0  0  0  0
  1  2  1  0  0  0
  1  4  1  0  0  0
  1  5  2  0  0  0
  2  3  2  0  0  0
  2  8  1  0  0  0
  3  7  1  0  0  0
  4  9  2  0  0  0
  4 10  1  0  0  0
  5  6  1  0  0  0
  5 13  1  0  0  0
  6  7  2  0  0  0
  7 16  1  0  0  0
  8  9  1  0  0  0
  8 24  1  0  0  0
  9 20  1  0  0  0
 10 14  1  0  0  0
 11 14  1  0  0  0
 11 12  2  0  0  0
 11 25  1  0  0  0
 12 19  1  0  0  0
 12 15  1  0  0  0
 13 26  1  0  0  0
 14 18  2  0  0  0
 15 17  2  0  0  0
 15 21  1  0  0  0
 16 27  1  0  0  0
 16 28  1  0  0  0
 17 18  1  0  0  0
 17 29  1  0  0  0
 18 30  1  0  0  0
 19 22  1  0  0  0
 20 31  1  0  0  0
 20 32  1  0  0  0
 20 33  1  0  0  0
 21 23  1  0  0  0
 22 34  1  0  0  0
 22 35  1  0  0  0
 22 36  1  0  0  0
 23 37  1  0  0  0
 23 38  1  0  0  0
 23 39  1  0  0  0
M  END
> <s_m_entry_id>
41166

> <s_m_entry_name>
dock_pv.283

> <s_m_Source_Path>
/home/csk/Desktop/cluster/DUD-E-result/tysy

> <s_m_Source_File>
dock_pv.maegz

> <i_m_Source_File_Index>
283

> <chembl_id>
CHEMBL140323

> <chembl_pref_name>
None

> <i_lp_mmshare_version>
53161

> <r_lp_tautomer_probability>
1

> <s_lp_Force_Field>
OPLS_2005

> <r_lp_Energy>
9.755322

> <b_lp_Chiralities_Consistent>
1

> <s_lp_Variant>
CHEMBL1952_lig20-1

> <s_i_glide_gridfile>
glide-grid_1syn

> <i_i_glide_lignum>
22

> <i_i_glide_rotatable_bonds>
5

> <r_i_docking_score>
-7.76658677113493

> <r_i_glide_ligand_efficiency>
-0.337677685701519

> <r_i_glide_ligand_efficiency_sa>
-0.960310419195562

> <r_i_glide_ligand_efficiency_ln>
-1.8780311047757

> <r_i_glide_gscore>
-7.76658677113493

> <r_i_glide_lipo>
-2.70304928536282

> <r_i_glide_hbond>
-0.34400788805447

> <r_i_glide_metal>
0

> <r_i_glide_rewards>
-1.77184724575454

> <r_i_glide_evdw>
-42.8422660827637

> <r_i_glide_ecoul>
-7.21344614028931

> <r_i_glide_erotb>
0.340956499394059

> <r_i_glide_esite>
-0.0645086261755822

> <r_i_glide_emodel>
-71.9304446345218

> <r_i_glide_energy>
-50.055712223053

> <r_i_glide_einternal>
4.39811611175537

> <i_i_glide_confnum>
4

> <i_i_glide_posenum>
225

> <r_i_glide_eff_state_penalty>
0

> <s_user_duplicate_titles>
CHEMBL1952_lig20

> <i_f3d_flags>
0

> <s_m_subgroup_title>
dock_pv

> <s_m_subgroupid>
dock_pv

> <b_m_subgroup_collapsed>
1

$$$$
CHEMBL1952_lig208
                    3D
 Schrodinger Suite 2021-1.
 60 62  0  0  1  0            999 V2000
   13.3890   18.3261   31.4244 N   0  0  0  0  0  0
   13.3905   17.7187   30.2945 C   0  0  0  0  0  0
   14.2370   16.6617   29.9841 N   0  0  0  0  0  0
   14.3062   18.0338   32.4355 C   0  0  0  0  0  0
   14.3960   18.6180   33.5135 O   0  0  0  0  0  0
   15.2696   16.8953   32.1307 C   0  0  0  0  0  0
   15.1928   16.2246   30.9067 C   0  0  0  0  0  0
   16.0589   15.1713   30.6258 C   0  0  0  0  0  0
   16.9926   14.7696   31.5870 C   0  0  0  0  0  0
   17.0764   15.4351   32.8180 C   0  0  0  0  0  0
   16.2352   16.5225   33.0674 C   0  0  0  0  0  0
   18.0938   15.0139   33.8795 C   0  0  0  0  0  0
   17.7860   13.7007   34.4791 N   0  0  0  0  0  0
   16.5918   13.5236   35.2511 C   0  0  0  0  0  0
   15.8754   14.6395   35.6998 C   0  0  0  0  0  0
   14.7026   14.5208   36.4223 C   0  0  0  0  0  0
   14.2411   13.2673   36.8127 C   0  0  0  0  0  0
   14.9248   12.1278   36.3748 C   0  0  0  0  0  0
   16.0687   12.2611   35.5915 C   0  0  0  0  0  0
   13.0483   13.1941   37.7240 C   0  0  0  0  0  0
   12.1849   14.0672   37.6826 O   0  0  0  0  0  0
   13.0438   12.1908   38.6164 N   0  0  0  0  0  0
   12.0926   12.0488   39.7257 C   0  0  1  0  0  0
   10.7692   11.3343   39.3071 C   0  0  0  0  0  0
   12.7937   11.3683   40.9163 C   0  0  0  0  0  0
   13.1406   10.0848   40.6026 O   0  0  0  0  0  0
   12.9924   11.9209   41.9791 O   0  0  0  0  0  0
    9.8496   12.0826   38.3117 C   0  0  0  0  0  0
    9.3578   13.4523   38.7980 C   0  0  0  0  0  0
    8.9037   14.2276   37.7746 O   0  0  0  0  0  0
    9.3727   13.8278   39.9696 O   0  0  0  0  0  0
   18.5117   12.5773   33.8647 C   0  0  0  0  0  0
   18.9920   11.5295   34.7910 C   0  0  0  0  0  0
   19.3900   10.6281   35.5120 C   0  0  0  0  0  0
   12.3676   18.1152   29.2223 C   0  0  0  0  0  0
   12.1913   19.5264   29.1299 O   0  0  0  0  0  0
   14.1909   16.2166   29.0826 H   0  0  0  0  0  0
   16.0055   14.6558   29.6787 H   0  0  0  0  0  0
   17.6537   13.9427   31.3709 H   0  0  0  0  0  0
   16.3273   17.0752   33.9909 H   0  0  0  0  0  0
   19.0729   15.0027   33.3967 H   0  0  0  0  0  0
   18.1877   15.7715   34.6585 H   0  0  0  0  0  0
   16.2064   15.6414   35.5192 H   0  0  0  0  0  0
   14.1939   15.4263   36.7251 H   0  0  0  0  0  0
   14.5758   11.1355   36.6209 H   0  0  0  0  0  0
   16.5180   11.3460   35.2474 H   0  0  0  0  0  0
   13.8435   11.5767   38.6254 H   0  0  0  0  0  0
   11.8498   13.0525   40.0823 H   0  0  0  0  0  0
   10.9970   10.3619   38.8689 H   0  0  0  0  0  0
   10.1746   11.1189   40.1965 H   0  0  0  0  0  0
   12.8524    9.8305   39.7240 H   0  0  0  0  0  0
   10.3556   12.2063   37.3554 H   0  0  0  0  0  0
    8.9682   11.4778   38.1032 H   0  0  0  0  0  0
    8.5789   15.0841   38.0932 H   0  0  0  0  0  0
   17.8766   12.1410   33.1016 H   0  0  0  0  0  0
   19.3945   12.9270   33.3321 H   0  0  0  0  0  0
   19.7458    9.8284   36.1206 H   0  0  0  0  0  0
   12.6657   17.7454   28.2442 H   0  0  0  0  0  0
   11.4044   17.6623   29.4615 H   0  0  0  0  0  0
   11.2551   19.7142   28.9623 H   0  0  0  0  0  0
  1  2  2  0  0  0
  1  4  1  0  0  0
  2  3  1  0  0  0
  2 35  1  0  0  0
  3  7  1  0  0  0
  3 37  1  0  0  0
  4  5  2  0  0  0
  4  6  1  0  0  0
  6 11  1  0  0  0
  6  7  2  0  0  0
  7  8  1  0  0  0
  8  9  2  0  0  0
  8 38  1  0  0  0
  9 10  1  0  0  0
  9 39  1  0  0  0
 10 11  2  0  0  0
 10 12  1  0  0  0
 11 40  1  0  0  0
 12 13  1  0  0  0
 12 41  1  0  0  0
 12 42  1  0  0  0
 13 14  1  0  0  0
 13 32  1  0  0  0
 14 19  1  0  0  0
 14 15  2  0  0  0
 15 16  1  0  0  0
 15 43  1  0  0  0
 16 17  2  0  0  0
 16 44  1  0  0  0
 17 18  1  0  0  0
 17 20  1  0  0  0
 18 19  2  0  0  0
 18 45  1  0  0  0
 19 46  1  0  0  0
 20 21  2  0  0  0
 20 22  1  0  0  0
 22 23  1  0  0  0
 22 47  1  0  0  0
 23 24  1  0  0  0
 23 25  1  0  0  0
 23 48  1  0  0  0
 24 28  1  0  0  0
 24 49  1  0  0  0
 24 50  1  0  0  0
 25 26  1  0  0  0
 25 27  2  0  0  0
 26 51  1  0  0  0
 28 29  1  0  0  0
 28 52  1  0  0  0
 28 53  1  0  0  0
 29 30  1  0  0  0
 29 31  2  0  0  0
 30 54  1  0  0  0
 32 33  1  0  0  0
 32 55  1  0  0  0
 32 56  1  0  0  0
 33 34  3  0  0  0
 34 57  1  0  0  0
 35 36  1  0  0  0
 35 58  1  0  0  0
 35 59  1  0  0  0
 36 60  1  0  0  0
M  END
> <s_m_entry_id>
41168

> <s_m_entry_name>
dock_pv.285

> <s_m_Source_Path>
/home/csk/Desktop/cluster/DUD-E-result/tysy

> <s_m_Source_File>
dock_pv.maegz

> <i_m_Source_File_Index>
285

> <chembl_id>
CHEMBL321977

> <chembl_pref_name>
None

> <i_lp_mmshare_version>
53161

> <r_lp_tautomer_probability>
0.116051

> <s_lp_Force_Field>
OPLS_2005

> <r_lp_Energy>
20.992793

> <b_lp_Chiralities_Consistent>
1

> <s_lp_Variant>
CHEMBL1952_lig208-2

> <s_i_glide_gridfile>
glide-grid_1syn

> <i_i_glide_lignum>
413

> <i_i_glide_rotatable_bonds>
16

> <r_i_docking_score>
-7.75521217643947

> <r_i_glide_ligand_efficiency>
-0.215422560456652

> <r_i_glide_ligand_efficiency_sa>
-0.711309621548805

> <r_i_glide_ligand_efficiency_ln>
-1.69197777527929

> <r_i_glide_gscore>
-7.75521217643947

> <r_i_glide_lipo>
-3.56156500367488

> <r_i_glide_hbond>
-0.161457781290322

> <r_i_glide_metal>
0

> <r_i_glide_rewards>
-0.647069143900038

> <r_i_glide_evdw>
-57.0619583129883

> <r_i_glide_ecoul>
-10.5814123153687

> <r_i_glide_erotb>
1.09155614280593

> <r_i_glide_esite>
-0.0363666274254445

> <r_i_glide_emodel>
-98.9207265841554

> <r_i_glide_energy>
-67.6433706283569

> <r_i_glide_einternal>
7.87127065658569

> <i_i_glide_confnum>
130

> <i_i_glide_posenum>
228

> <r_i_glide_eff_state_penalty>
0

> <s_user_duplicate_titles>
CHEMBL1952_lig208,170386,268555

> <i_f3d_flags>
0

> <s_m_subgroup_title>
dock_pv

> <s_m_subgroupid>
dock_pv

> <b_m_subgroup_collapsed>
1

$$$$
CHEMBL1952_lig253
                    3D
 Schrodinger Suite 2021-1.
 53 55  0  0  1  0            999 V2000
   15.4247   13.2430   36.2786 C   0  0  0  0  0  0
   14.1516   13.4294   36.9336 C   0  0  0  0  0  0
   13.3170   14.2274   36.5054 O   0  0  0  0  0  0
   13.9461   12.6750   38.0293 N   0  0  0  0  0  0
   12.7416   12.7503   38.8798 C   0  0  1  0  0  0
   11.4823   12.2046   38.1359 C   0  0  0  0  0  0
   12.9918   12.0820   40.2469 C   0  0  0  0  0  0
   13.3561   10.7768   40.0798 O   0  0  0  0  0  0
   12.8610   12.6570   41.3085 O   0  0  0  0  0  0
   10.1429   12.2467   38.9132 C   0  0  0  0  0  0
    9.6461   13.6629   39.2133 C   0  0  0  0  0  0
    9.0029   14.2280   38.1540 O   0  0  0  0  0  0
    9.7921   14.2279   40.2969 O   0  0  0  0  0  0
   13.7092   18.4027   32.0600 N   0  0  0  0  0  0
   13.3025   18.0734   30.7949 C   0  0  0  0  0  0
   13.8513   17.1108   30.1485 N   0  0  0  0  0  0
   14.7134   17.8343   32.7677 C   0  0  0  0  0  0
   15.0082   18.2275   33.8920 O   0  0  0  0  0  0
   15.3917   16.7193   32.0106 C   0  0  0  0  0  0
   14.9033   16.3941   30.7418 C   0  0  0  0  0  0
   15.4872   15.3530   30.0268 C   0  0  0  0  0  0
   16.5305   14.6207   30.6002 C   0  0  0  0  0  0
   17.0102   14.9282   31.8802 C   0  0  0  0  0  0
   16.4708   16.0276   32.5596 C   0  0  0  0  0  0
   18.1353   14.0681   32.4690 C   0  0  0  0  0  0
   18.3097   14.1370   33.9326 N   0  0  0  0  0  0
   12.2029   18.8864   30.1581 C   0  0  0  0  0  0
   17.3565   13.6389   34.8031 C   0  0  0  0  0  0
   16.0901   14.6279   35.4644 S   0  0  0  0  0  0
   16.1612   12.1626   36.1283 N   0  0  0  0  0  0
   17.2067   12.3600   35.3396 C   0  0  0  0  0  0
   19.7164   14.0546   34.3155 C   0  0  0  0  0  0
   14.7168   12.1263   38.3805 H   0  0  0  0  0  0
   12.5800   13.8112   39.0856 H   0  0  0  0  0  0
   11.6610   11.1810   37.8038 H   0  0  0  0  0  0
   11.3349   12.7659   37.2117 H   0  0  0  0  0  0
   13.3418   10.5154   39.1571 H   0  0  0  0  0  0
   10.2237   11.6961   39.8502 H   0  0  0  0  0  0
    9.3716   11.7373   38.3343 H   0  0  0  0  0  0
    8.6377   15.1008   38.3843 H   0  0  0  0  0  0
   13.2591   19.1652   32.5420 H   0  0  0  0  0  0
   15.1208   15.1031   29.0424 H   0  0  0  0  0  0
   16.9551   13.7943   30.0519 H   0  0  0  0  0  0
   16.8770   16.3361   33.5115 H   0  0  0  0  0  0
   19.0508   14.3365   31.9388 H   0  0  0  0  0  0
   17.9460   13.0253   32.2087 H   0  0  0  0  0  0
   11.3888   18.2421   29.8292 H   0  0  0  0  0  0
   11.7919   19.6260   30.8444 H   0  0  0  0  0  0
   12.5746   19.4219   29.2855 H   0  0  0  0  0  0
   17.8697   11.5330   35.1309 H   0  0  0  0  0  0
   20.0706   13.0265   34.3906 H   0  0  0  0  0  0
   20.3442   14.5191   33.5540 H   0  0  0  0  0  0
   19.9299   14.6587   35.1910 H   0  0  0  0  0  0
  1  2  1  0  0  0
  1 29  1  0  0  0
  1 30  2  0  0  0
  2  3  2  0  0  0
  2  4  1  0  0  0
  4  5  1  0  0  0
  4 33  1  0  0  0
  5  6  1  0  0  0
  5  7  1  0  0  0
  5 34  1  0  0  0
  6 10  1  0  0  0
  6 35  1  0  0  0
  6 36  1  0  0  0
  7  9  2  0  0  0
  7  8  1  0  0  0
  8 37  1  0  0  0
 10 11  1  0  0  0
 10 38  1  0  0  0
 10 39  1  0  0  0
 11 12  1  0  0  0
 11 13  2  0  0  0
 12 40  1  0  0  0
 14 15  1  0  0  0
 14 17  1  0  0  0
 14 41  1  0  0  0
 15 16  2  0  0  0
 15 27  1  0  0  0
 16 20  1  0  0  0
 17 19  1  0  0  0
 17 18  2  0  0  0
 19 20  2  0  0  0
 19 24  1  0  0  0
 20 21  1  0  0  0
 21 22  2  0  0  0
 21 42  1  0  0  0
 22 23  1  0  0  0
 22 43  1  0  0  0
 23 24  2  0  0  0
 23 25  1  0  0  0
 24 44  1  0  0  0
 25 26  1  0  0  0
 25 45  1  0  0  0
 25 46  1  0  0  0
 26 28  1  0  0  0
 26 32  1  0  0  0
 27 47  1  0  0  0
 27 48  1  0  0  0
 27 49  1  0  0  0
 28 29  1  0  0  0
 28 31  2  0  0  0
 30 31  1  0  0  0
 31 50  1  0  0  0
 32 51  1  0  0  0
 32 52  1  0  0  0
 32 53  1  0  0  0
M  END
> <s_m_entry_id>
41170

> <s_m_entry_name>
dock_pv.287

> <s_m_Source_Path>
/home/csk/Desktop/cluster/DUD-E-result/tysy

> <s_m_Source_File>
dock_pv.maegz

> <i_m_Source_File_Index>
287

> <chembl_id>
CHEMBL1097598

> <chembl_pref_name>
None

> <i_lp_mmshare_version>
53161

> <r_lp_tautomer_probability>
0.883938

> <s_lp_Force_Field>
OPLS_2005

> <r_lp_Energy>
19.245236

> <b_lp_Chiralities_Consistent>
1

> <s_lp_Variant>
CHEMBL1952_lig253-1

> <s_i_glide_gridfile>
glide-grid_1syn

> <i_i_glide_lignum>
502

> <i_i_glide_rotatable_bonds>
12

> <r_i_docking_score>
-7.75269812997918

> <r_i_glide_ligand_efficiency>
-0.242271816561849

> <r_i_glide_ligand_efficiency_sa>
-0.769165072056478

> <r_i_glide_ligand_efficiency_ln>
-1.7360404418718

> <r_i_glide_gscore>
-7.75269812997918

> <r_i_glide_lipo>
-2.90619284879701

> <r_i_glide_hbond>
-0.078596787490622

> <r_i_glide_metal>
0

> <r_i_glide_rewards>
-0.900456258767201

> <r_i_glide_evdw>
-55.7550354003906

> <r_i_glide_ecoul>
-13.3165464401245

> <r_i_glide_erotb>
0.953060981468716

> <r_i_glide_esite>
-0.035279480354853

> <r_i_glide_emodel>
-96.1698905631176

> <r_i_glide_energy>
-69.0715818405151

> <r_i_glide_einternal>
12.5983638763428

> <i_i_glide_confnum>
106

> <i_i_glide_posenum>
143

> <r_i_glide_eff_state_penalty>
0

> <s_user_duplicate_titles>
CHEMBL1952_lig253,625029

> <i_f3d_flags>
0

> <s_m_subgroup_title>
dock_pv

> <s_m_subgroupid>
dock_pv

> <b_m_subgroup_collapsed>
1

$$$$
CHEMBL1952_lig123
                    3D
 Schrodinger Suite 2021-1.
 35 37  0  0  1  0            999 V2000
   14.9448   16.7843   31.7646 C   0  0  0  0  0  0
   14.5289   16.2955   30.4971 C   0  0  0  0  0  0
   13.5078   16.7523   29.7735 N   0  0  0  0  0  0
   16.0879   15.9962   32.1558 C   0  0  0  0  0  0
   14.1845   17.8607   32.2784 C   0  0  0  0  0  0
   13.1351   18.3424   31.5671 N   0  0  0  0  0  0
   12.8602   17.7772   30.3709 C   0  0  0  0  0  0
   15.3808   15.2768   30.1473 N   0  0  0  0  0  0
   16.3156   15.0813   31.1356 C   0  0  0  0  0  0
   13.3419   12.5313   37.9940 C   0  0  0  0  0  0
   17.0749   16.1763   33.5910 S   0  0  0  0  0  0
   14.5441   18.3856   33.4884 O   0  0  0  0  0  0
   14.5905   12.3047   37.3368 O   0  0  0  0  0  0
   11.7921   18.2981   29.6727 N   0  0  0  0  0  0
   16.2875   15.0282   34.6765 C   0  0  0  0  0  0
   13.1551   11.5226   38.8451 F   0  0  0  0  0  0
   13.3577   13.6594   38.7102 F   0  0  0  0  0  0
   12.3210   12.5299   37.1326 F   0  0  0  0  0  0
   15.0897   13.2389   36.4500 C   0  0  0  0  0  0
   17.3740   14.0151   30.9893 C   0  0  0  0  0  0
   16.9935   13.9099   35.1142 C   0  0  0  0  0  0
   14.9903   15.2667   35.1250 C   0  0  0  0  0  0
   16.3875   13.0146   35.9903 C   0  0  0  0  0  0
   14.3884   14.3706   36.0025 C   0  0  0  0  0  0
   15.3539   14.7230   29.3054 H   0  0  0  0  0  0
   13.9566   19.1109   33.7264 H   0  0  0  0  0  0
   11.5620   17.8984   28.7823 H   0  0  0  0  0  0
   11.2017   19.0072   30.0920 H   0  0  0  0  0  0
   17.7843   13.7097   31.9519 H   0  0  0  0  0  0
   16.9923   13.1131   30.5120 H   0  0  0  0  0  0
   18.2126   14.3671   30.3911 H   0  0  0  0  0  0
   18.0036   13.7349   34.7733 H   0  0  0  0  0  0
   14.4470   16.1385   34.7956 H   0  0  0  0  0  0
   16.9378   12.1493   36.3322 H   0  0  0  0  0  0
   13.3812   14.5789   36.3293 H   0  0  0  0  0  0
  1  2  1  0  0  0
  1  4  1  0  0  0
  1  5  2  0  0  0
  2  3  2  0  0  0
  2  8  1  0  0  0
  3  7  1  0  0  0
  4  9  2  0  0  0
  4 11  1  0  0  0
  5  6  1  0  0  0
  5 12  1  0  0  0
  6  7  2  0  0  0
  7 14  1  0  0  0
  8  9  1  0  0  0
  8 25  1  0  0  0
  9 20  1  0  0  0
 10 13  1  0  0  0
 10 16  1  0  0  0
 10 17  1  0  0  0
 10 18  1  0  0  0
 11 15  1  0  0  0
 12 26  1  0  0  0
 13 19  1  0  0  0
 14 27  1  0  0  0
 14 28  1  0  0  0
 15 21  1  0  0  0
 15 22  2  0  0  0
 19 24  2  0  0  0
 19 23  1  0  0  0
 20 29  1  0  0  0
 20 30  1  0  0  0
 20 31  1  0  0  0
 21 23  2  0  0  0
 21 32  1  0  0  0
 22 24  1  0  0  0
 22 33  1  0  0  0
 23 34  1  0  0  0
 24 35  1  0  0  0
M  END
> <s_m_entry_id>
41171

> <s_m_entry_name>
dock_pv.288

> <s_m_Source_Path>
/home/csk/Desktop/cluster/DUD-E-result/tysy

> <s_m_Source_File>
dock_pv.maegz

> <i_m_Source_File_Index>
288

> <chembl_id>
CHEMBL195578

> <chembl_pref_name>
None

> <i_lp_mmshare_version>
53161

> <r_lp_tautomer_probability>
1

> <s_lp_Force_Field>
OPLS_2005

> <r_lp_Energy>
2.140767

> <b_lp_Chiralities_Consistent>
1

> <s_lp_Variant>
CHEMBL1952_lig123-1

> <s_i_glide_gridfile>
glide-grid_1syn

> <i_i_glide_lignum>
300

> <i_i_glide_rotatable_bonds>
5

> <r_i_docking_score>
-7.75079304073795

> <r_i_glide_ligand_efficiency>
-0.322949710030748

> <r_i_glide_ligand_efficiency_sa>
-0.93154816005866

> <r_i_glide_ligand_efficiency_ln>
-1.85512043536607

> <r_i_glide_gscore>
-7.75079304073795

> <r_i_glide_lipo>
-3.19480171390478

> <r_i_glide_hbond>
-0.300509811987917

> <r_i_glide_metal>
0

> <r_i_glide_rewards>
-1.85831306045066

> <r_i_glide_evdw>
-41.1985626220703

> <r_i_glide_ecoul>
-4.91024971008301

> <r_i_glide_erotb>
0.45203187905939

> <r_i_glide_esite>
-0.0527347458380275

> <r_i_glide_emodel>
-68.7098371242274

> <r_i_glide_energy>
-46.1088123321533

> <r_i_glide_einternal>
2.13083291053772

> <i_i_glide_confnum>
6

> <i_i_glide_posenum>
4

> <r_i_glide_eff_state_penalty>
0

> <s_user_duplicate_titles>
CHEMBL1952_lig123

> <i_f3d_flags>
0

> <s_m_subgroup_title>
dock_pv

> <s_m_subgroupid>
dock_pv

> <b_m_subgroup_collapsed>
1

$$$$
CHEMBL1952_lig209
                    3D
 Schrodinger Suite 2021-1.
 60 62  0  0  1  0            999 V2000
   13.2785   18.1693   31.5321 N   0  0  0  0  0  0
   13.3903   17.5136   30.3364 C   0  0  0  0  0  0
   14.3034   16.6276   30.1482 N   0  0  0  0  0  0
   14.0559   18.0084   32.6240 C   0  0  0  0  0  0
   13.8580   18.6280   33.6561 O   0  0  0  0  0  0
   15.1467   16.9971   32.4164 C   0  0  0  0  0  0
   15.1976   16.3280   31.1897 C   0  0  0  0  0  0
   16.1868   15.3749   30.9712 C   0  0  0  0  0  0
   17.1330   15.1229   31.9669 C   0  0  0  0  0  0
   17.0995   15.8281   33.1824 C   0  0  0  0  0  0
   16.0811   16.7490   33.4198 C   0  0  0  0  0  0
   18.2321   15.6636   34.1889 C   0  0  0  0  0  0
   18.4840   14.2483   34.4994 N   0  0  0  0  0  0
   17.4969   13.4660   35.1613 C   0  0  0  0  0  0
   17.5799   12.0659   35.1917 C   0  0  0  0  0  0
   16.5939   11.2948   35.8021 C   0  0  0  0  0  0
   15.4849   11.8990   36.4091 C   0  0  0  0  0  0
   15.3919   13.2981   36.3909 C   0  0  0  0  0  0
   16.3834   14.0607   35.7756 C   0  0  0  0  0  0
   14.3999   11.0592   37.0348 C   0  0  0  0  0  0
   13.8460   11.3967   38.0815 O   0  0  0  0  0  0
   14.0893    9.9398   36.3614 N   0  0  0  0  0  0
   13.0658    8.9546   36.7251 C   0  0  1  0  0  0
   11.6502    9.4742   36.3486 C   0  0  0  0  0  0
   13.3920    7.5883   36.0877 C   0  0  0  0  0  0
   12.6598    6.6019   36.6770 O   0  0  0  0  0  0
   14.1922    7.4282   35.1911 O   0  0  0  0  0  0
   11.4554    9.8582   34.8607 C   0  0  0  0  0  0
   10.0137   10.2425   34.5248 C   0  0  0  0  0  0
    9.8363   10.4511   33.1912 O   0  0  0  0  0  0
    9.1134   10.3571   35.3531 O   0  0  0  0  0  0
   19.8695   13.7738   34.3909 C   0  0  0  0  0  0
   20.5200   14.2280   33.1645 C   0  0  0  0  0  0
   21.0073   14.6280   32.1233 C   0  0  0  0  0  0
   14.3368   13.9401   36.9476 F   0  0  0  0  0  0
   12.4096   17.8796   29.2371 C   0  0  0  0  0  0
   11.1132   17.4280   29.5910 O   0  0  0  0  0  0
   12.5417   18.8451   31.6517 H   0  0  0  0  0  0
   16.2339   14.8514   30.0280 H   0  0  0  0  0  0
   17.9208   14.4064   31.7781 H   0  0  0  0  0  0
   16.0341   17.2920   34.3535 H   0  0  0  0  0  0
   19.0815   16.1522   33.7170 H   0  0  0  0  0  0
   18.1920   16.2257   35.1113 H   0  0  0  0  0  0
   18.3840   11.5357   34.7080 H   0  0  0  0  0  0
   16.7070   10.2200   35.7879 H   0  0  0  0  0  0
   16.2663   15.1320   35.7937 H   0  0  0  0  0  0
   14.5918    9.7310   35.5121 H   0  0  0  0  0  0
   13.1115    8.8138   37.8071 H   0  0  0  0  0  0
   10.9038    8.7300   36.6339 H   0  0  0  0  0  0
   11.4212   10.3452   36.9653 H   0  0  0  0  0  0
   12.8443    5.7505   36.2701 H   0  0  0  0  0  0
   12.1011   10.6945   34.5984 H   0  0  0  0  0  0
   11.7455    9.0297   34.2150 H   0  0  0  0  0  0
    8.9282   10.6791   32.9816 H   0  0  0  0  0  0
   20.4787   14.1758   35.1910 H   0  0  0  0  0  0
   19.9798   12.6935   34.3910 H   0  0  0  0  0  0
   21.3915   14.8460   31.1622 H   0  0  0  0  0  0
   12.3932   18.9591   29.0805 H   0  0  0  0  0  0
   12.7106   17.4283   28.2932 H   0  0  0  0  0  0
   10.5037   18.1796   29.5858 H   0  0  0  0  0  0
  1  2  1  0  0  0
  1  4  1  0  0  0
  1 38  1  0  0  0
  2  3  2  0  0  0
  2 36  1  0  0  0
  3  7  1  0  0  0
  4  6  1  0  0  0
  4  5  2  0  0  0
  6 11  1  0  0  0
  6  7  2  0  0  0
  7  8  1  0  0  0
  8  9  2  0  0  0
  8 39  1  0  0  0
  9 10  1  0  0  0
  9 40  1  0  0  0
 10 11  2  0  0  0
 10 12  1  0  0  0
 11 41  1  0  0  0
 12 13  1  0  0  0
 12 42  1  0  0  0
 12 43  1  0  0  0
 13 14  1  0  0  0
 13 32  1  0  0  0
 14 19  1  0  0  0
 14 15  2  0  0  0
 15 16  1  0  0  0
 15 44  1  0  0  0
 16 17  2  0  0  0
 16 45  1  0  0  0
 17 18  1  0  0  0
 17 20  1  0  0  0
 18 19  2  0  0  0
 18 35  1  0  0  0
 19 46  1  0  0  0
 20 21  2  0  0  0
 20 22  1  0  0  0
 22 23  1  0  0  0
 22 47  1  0  0  0
 23 24  1  0  0  0
 23 25  1  0  0  0
 23 48  1  0  0  0
 24 28  1  0  0  0
 24 49  1  0  0  0
 24 50  1  0  0  0
 25 26  1  0  0  0
 25 27  2  0  0  0
 26 51  1  0  0  0
 28 29  1  0  0  0
 28 52  1  0  0  0
 28 53  1  0  0  0
 29 30  1  0  0  0
 29 31  2  0  0  0
 30 54  1  0  0  0
 32 33  1  0  0  0
 32 55  1  0  0  0
 32 56  1  0  0  0
 33 34  3  0  0  0
 34 57  1  0  0  0
 36 37  1  0  0  0
 36 58  1  0  0  0
 36 59  1  0  0  0
 37 60  1  0  0  0
M  END
> <s_m_entry_id>
41173

> <s_m_entry_name>
dock_pv.290

> <s_m_Source_Path>
/home/csk/Desktop/cluster/DUD-E-result/tysy

> <s_m_Source_File>
dock_pv.maegz

> <i_m_Source_File_Index>
290

> <chembl_id>
CHEMBL104410

> <chembl_pref_name>
None

> <i_lp_mmshare_version>
53161

> <r_lp_tautomer_probability>
0.883938

> <s_lp_Force_Field>
OPLS_2005

> <r_lp_Energy>
23.078472

> <b_lp_Chiralities_Consistent>
1

> <s_lp_Variant>
CHEMBL1952_lig209-1

> <s_i_glide_gridfile>
glide-grid_1syn

> <i_i_glide_lignum>
414

> <i_i_glide_rotatable_bonds>
16

> <r_i_docking_score>
-7.74614681973718

> <r_i_glide_ligand_efficiency>
-0.209355319452356

> <r_i_glide_ligand_efficiency_sa>
-0.697618369397779

> <r_i_glide_ligand_efficiency_ln>
-1.6799576497546

> <r_i_glide_gscore>
-7.74614681973718

> <r_i_glide_lipo>
-3.70376163810402

> <r_i_glide_hbond>
-0.608

> <r_i_glide_metal>
0

> <r_i_glide_rewards>
-0.909978740999243

> <r_i_glide_evdw>
-41.5600280761719

> <r_i_glide_ecoul>
-9.78971576690674

> <r_i_glide_erotb>
1.02205232821069

> <r_i_glide_esite>
0

> <r_i_glide_emodel>
-76.4953098075803

> <r_i_glide_energy>
-51.3497438430786

> <r_i_glide_einternal>
7.78917694091797

> <i_i_glide_confnum>
22

> <i_i_glide_posenum>
11

> <r_i_glide_eff_state_penalty>
0

> <s_user_duplicate_titles>
CHEMBL1952_lig209,170616

> <i_f3d_flags>
0

> <s_m_subgroup_title>
dock_pv

> <s_m_subgroupid>
dock_pv

> <b_m_subgroup_collapsed>
1

$$$$
CHEMBL1952_lig109
                    3D
 Schrodinger Suite 2021-1.
 54 56  0  0  1  0            999 V2000
   13.4742   18.2272   32.0047 N   0  0  0  0  0  0
   14.1880   17.7395   33.0444 C   0  0  0  0  0  0
   15.1553   16.7037   32.8628 C   0  0  0  0  0  0
   13.7159   17.7002   30.7889 C   0  0  0  0  0  0
   14.6054   16.7282   30.4908 N   0  0  0  0  0  0
   12.3959   12.0349   37.7364 C   0  0  0  0  0  0
   15.3346   16.2291   31.5288 C   0  0  0  0  0  0
   11.5431   13.0582   37.9350 N   0  0  0  0  0  0
   17.4015   13.2113   35.1224 N   0  0  0  0  0  0
   18.4185   12.3137   35.1681 C   0  0  0  0  0  0
   10.3202   13.6372   39.9909 C   0  0  0  0  0  0
   19.2951   11.4633   35.1913 C   0  0  0  0  0  0
   10.2372   12.9655   38.6001 C   0  0  1  0  0  0
   15.9370   16.1378   33.9032 C   0  0  0  0  0  0
   13.6996   12.3718   37.0480 C   0  0  0  0  0  0
   16.1668   12.9407   35.7787 C   0  0  0  0  0  0
   17.7614   14.5940   34.7499 C   0  0  0  0  0  0
    9.3920   14.6280   40.1503 O   0  0  0  0  0  0
   12.1428   10.8747   38.0707 O   0  0  0  0  0  0
   16.8867   15.1509   33.6274 C   0  0  0  0  0  0
   11.1162   13.2967   40.8424 O   0  0  0  0  0  0
   16.2993   15.2250   31.2749 C   0  0  0  0  0  0
   14.2325   13.6676   37.0694 C   0  0  0  0  0  0
   14.4136   11.3621   36.3921 C   0  0  0  0  0  0
   15.6228   11.6453   35.7681 C   0  0  0  0  0  0
   15.4453   13.9427   36.4436 C   0  0  0  0  0  0
   12.9756   18.2107   29.7413 N   0  0  0  0  0  0
    8.0470   10.7470   37.6388 O   0  0  0  0  0  0
   14.0248   18.2280   34.3111 O   0  0  0  0  0  0
   17.0662   14.7076   32.3170 C   0  0  0  0  0  0
    8.4252   11.1798   36.5501 C   0  0  0  0  0  0
    9.0796   13.4496   37.6746 C   0  0  0  0  0  0
    8.9134   12.6259   36.3705 C   0  0  0  0  0  0
   11.8091   13.9737   37.6066 H   0  0  0  0  0  0
   20.0776   10.7370   35.1907 H   0  0  0  0  0  0
   10.0341   11.9230   38.8452 H   0  0  0  0  0  0
   15.7906   16.4926   34.9093 H   0  0  0  0  0  0
   18.8014   14.6637   34.4200 H   0  0  0  0  0  0
   17.7313   15.2385   35.6277 H   0  0  0  0  0  0
    8.9008   14.8335   39.3461 H   0  0  0  0  0  0
   16.4400   14.8691   30.2647 H   0  0  0  0  0  0
   13.7359   14.4751   37.5856 H   0  0  0  0  0  0
   14.0343   10.3501   36.3561 H   0  0  0  0  0  0
   16.1379   10.8420   35.2590 H   0  0  0  0  0  0
   15.8206   14.9489   36.5176 H   0  0  0  0  0  0
   13.1556   17.8820   28.8083 H   0  0  0  0  0  0
   12.3109   18.9450   29.9372 H   0  0  0  0  0  0
   13.4255   18.9842   34.3293 H   0  0  0  0  0  0
   17.8085   13.9503   32.1027 H   0  0  0  0  0  0
    8.4298   10.5753   35.6403 H   0  0  0  0  0  0
    8.1272   13.4352   38.2096 H   0  0  0  0  0  0
    9.2514   14.4903   37.3913 H   0  0  0  0  0  0
    8.1870   13.1136   35.7209 H   0  0  0  0  0  0
    9.8538   12.6002   35.8194 H   0  0  0  0  0  0
  1  2  2  0  0  0
  1  4  1  0  0  0
  2  3  1  0  0  0
  2 29  1  0  0  0
  3 14  1  0  0  0
  3  7  2  0  0  0
  4  5  2  0  0  0
  4 27  1  0  0  0
  5  7  1  0  0  0
  6 15  1  0  0  0
  6  8  1  0  0  0
  6 19  2  0  0  0
  7 22  1  0  0  0
  8 13  1  0  0  0
  8 34  1  0  0  0
  9 17  1  0  0  0
  9 10  1  0  0  0
  9 16  1  0  0  0
 10 12  3  0  0  0
 11 13  1  0  0  0
 11 18  1  0  0  0
 11 21  2  0  0  0
 12 35  1  0  0  0
 13 32  1  0  0  0
 13 36  1  0  0  0
 14 20  2  0  0  0
 14 37  1  0  0  0
 15 23  1  0  0  0
 15 24  2  0  0  0
 16 25  2  0  0  0
 16 26  1  0  0  0
 17 20  1  0  0  0
 17 38  1  0  0  0
 17 39  1  0  0  0
 18 40  1  0  0  0
 20 30  1  0  0  0
 22 30  2  0  0  0
 22 41  1  0  0  0
 23 26  2  0  0  0
 23 42  1  0  0  0
 24 25  1  0  0  0
 24 43  1  0  0  0
 25 44  1  0  0  0
 26 45  1  0  0  0
 27 46  1  0  0  0
 27 47  1  0  0  0
 28 31  2  0  0  0
 29 48  1  0  0  0
 30 49  1  0  0  0
 31 33  1  0  0  0
 31 50  1  0  0  0
 32 33  1  0  0  0
 32 51  1  0  0  0
 32 52  1  0  0  0
 33 53  1  0  0  0
 33 54  1  0  0  0
M  END
> <s_m_entry_id>
41174

> <s_m_entry_name>
dock_pv.291

> <s_m_Source_Path>
/home/csk/Desktop/cluster/DUD-E-result/tysy

> <s_m_Source_File>
dock_pv.maegz

> <i_m_Source_File_Index>
291

> <chembl_id>
CHEMBL1160200

> <chembl_pref_name>
None

> <i_lp_mmshare_version>
53161

> <r_lp_tautomer_probability>
0.99990000499975

> <s_lp_Force_Field>
OPLS_2005

> <r_lp_Energy>
12.273391

> <b_lp_Chiralities_Consistent>
1

> <s_lp_Variant>
CHEMBL1952_lig109-1

> <s_i_glide_gridfile>
glide-grid_1syn

> <i_i_glide_lignum>
278

> <i_i_glide_rotatable_bonds>
13

> <r_i_docking_score>
-7.74186868664371

> <r_i_glide_ligand_efficiency>
-0.234602081413446

> <r_i_glide_ligand_efficiency_sa>
-0.752494229145069

> <r_i_glide_ligand_efficiency_ln>
-1.72175151065882

> <r_i_glide_gscore>
-7.74186868664371

> <r_i_glide_lipo>
-3.38083720433806

> <r_i_glide_hbond>
-0.113317056737883

> <r_i_glide_metal>
0

> <r_i_glide_rewards>
-1.3040321753415

> <r_i_glide_evdw>
-48.5583839416504

> <r_i_glide_ecoul>
-9.92232513427734

> <r_i_glide_erotb>
1.00020462753588

> <r_i_glide_esite>
-0.0276189105380273

> <r_i_glide_emodel>
-85.0966677862153

> <r_i_glide_energy>
-58.4807090759277

> <r_i_glide_einternal>
5.99383354187012

> <i_i_glide_confnum>
50

> <i_i_glide_posenum>
25

> <r_i_glide_eff_state_penalty>
0

> <s_user_duplicate_titles>
CHEMBL1952_lig109

> <i_f3d_flags>
0

> <s_m_subgroup_title>
dock_pv

> <s_m_subgroupid>
dock_pv

> <b_m_subgroup_collapsed>
1

$$$$
CHEMBL1952_lig327 
                    3D
 Schrodinger Suite 2021-1.
 54 57  0  0  1  0            999 V2000
   13.6216   18.2863   31.5659 N   0  0  0  0  0  0
   13.3030   17.8283   30.3017 C   0  0  0  0  0  0
   13.9389   16.8323   29.7798 N   0  0  0  0  0  0
   14.5923   17.8255   32.4178 C   0  0  0  0  0  0
   15.2826   16.6726   31.8331 C   0  0  0  0  0  0
   14.9182   16.2732   30.5483 C   0  0  0  0  0  0
   15.7301   15.2410   30.1745 N   0  0  0  0  0  0
   16.5894   14.9744   31.2137 C   0  0  0  0  0  0
   16.3192   15.8279   32.2876 C   0  0  0  0  0  0
   14.8070   18.3789   33.4932 O   0  0  0  0  0  0
   12.2812   18.4884   29.5910 N   0  0  0  0  0  0
   17.0229   15.8559   33.6330 C   0  0  0  0  0  0
   16.2935   15.0195   34.6813 C   0  0  0  0  0  0
   16.8543   13.8276   35.1461 C   0  0  0  0  0  0
   16.1293   12.9985   36.0009 C   0  0  0  0  0  0
   14.8351   13.3583   36.4195 C   0  0  0  0  0  0
   14.3105   14.5830   35.9910 C   0  0  0  0  0  0
   15.0332   15.4080   35.1390 C   0  0  0  0  0  0
   13.9755   12.4488   37.2755 C   0  0  0  0  0  0
   12.7761   12.6865   37.4390 O   0  0  0  0  0  0
   14.5926   11.3877   37.8316 N   0  0  0  0  0  0
   13.9484   10.2947   38.4422 C   0  0  0  0  0  0
   13.2874   10.4392   39.6871 C   0  0  0  0  0  0
   12.6508    9.3278   40.2504 C   0  0  0  0  0  0
   12.6863    8.0890   39.6225 C   0  0  0  0  0  0
   13.3489    7.9410   38.4098 C   0  0  0  0  0  0
   13.9820    9.0314   37.7967 C   0  0  0  0  0  0
   14.6989    8.8034   36.4834 C   0  0  0  0  0  0
   14.0197    8.0093   35.6067 O   0  0  0  0  0  0
   15.7920    9.3095   36.2352 O   0  0  0  0  0  0
   13.2066   11.7822   40.4321 C   0  0  0  0  0  0
   13.0933   11.6280   41.8506 O   0  0  0  0  0  0
   14.3023   11.2651   42.5082 C   0  0  0  0  0  0
   13.1321   19.0977   31.9085 H   0  0  0  0  0  0
   15.6922   14.7616   29.2865 H   0  0  0  0  0  0
   17.3168   14.1798   31.1169 H   0  0  0  0  0  0
   11.9438   18.0784   28.7346 H   0  0  0  0  0  0
   11.5455   18.9705   30.0905 H   0  0  0  0  0  0
   17.1028   16.8817   33.9907 H   0  0  0  0  0  0
   18.0528   15.5108   33.5306 H   0  0  0  0  0  0
   17.8313   13.5142   34.8068 H   0  0  0  0  0  0
   16.5854   12.0657   36.2987 H   0  0  0  0  0  0
   13.3181   14.8919   36.2843 H   0  0  0  0  0  0
   14.5838   16.3303   34.8123 H   0  0  0  0  0  0
   15.5589   11.2429   37.5827 H   0  0  0  0  0  0
   12.1266    9.4175   41.1902 H   0  0  0  0  0  0
   12.1996    7.2393   40.0786 H   0  0  0  0  0  0
   13.3688    6.9576   37.9595 H   0  0  0  0  0  0
   13.1428    7.8045   35.9375 H   0  0  0  0  0  0
   12.3037   12.2851   40.0850 H   0  0  0  0  0  0
   14.0409   12.4435   40.1924 H   0  0  0  0  0  0
   14.1070   11.0952   43.5675 H   0  0  0  0  0  0
   15.0412   12.0641   42.4333 H   0  0  0  0  0  0
   14.7354   10.3514   42.0990 H   0  0  0  0  0  0
  1  2  1  0  0  0
  1  4  1  0  0  0
  1 34  1  0  0  0
  2  3  2  0  0  0
  2 11  1  0  0  0
  3  6  1  0  0  0
  4  5  1  0  0  0
  4 10  2  0  0  0
  5  6  2  0  0  0
  5  9  1  0  0  0
  6  7  1  0  0  0
  7  8  1  0  0  0
  7 35  1  0  0  0
  8  9  2  0  0  0
  8 36  1  0  0  0
  9 12  1  0  0  0
 11 37  1  0  0  0
 11 38  1  0  0  0
 12 13  1  0  0  0
 12 39  1  0  0  0
 12 40  1  0  0  0
 13 14  2  0  0  0
 13 18  1  0  0  0
 14 15  1  0  0  0
 14 41  1  0  0  0
 15 16  2  0  0  0
 15 42  1  0  0  0
 16 17  1  0  0  0
 16 19  1  0  0  0
 17 18  2  0  0  0
 17 43  1  0  0  0
 18 44  1  0  0  0
 19 20  2  0  0  0
 19 21  1  0  0  0
 21 22  1  0  0  0
 21 45  1  0  0  0
 22 23  2  0  0  0
 22 27  1  0  0  0
 23 24  1  0  0  0
 23 31  1  0  0  0
 24 25  2  0  0  0
 24 46  1  0  0  0
 25 26  1  0  0  0
 25 47  1  0  0  0
 26 27  2  0  0  0
 26 48  1  0  0  0
 27 28  1  0  0  0
 28 29  1  0  0  0
 28 30  2  0  0  0
 29 49  1  0  0  0
 31 32  1  0  0  0
 31 50  1  0  0  0
 31 51  1  0  0  0
 32 33  1  0  0  0
 33 52  1  0  0  0
 33 53  1  0  0  0
 33 54  1  0  0  0
M  END
> <s_m_entry_id>
41175

> <s_m_entry_name>
dock_pv.292

> <s_m_Source_Path>
/home/csk/Desktop/cluster/DUD-E-result/tysy

> <s_m_Source_File>
dock_pv.maegz

> <i_m_Source_File_Index>
292

> <chembl_id>
CHEMBL4447274

> <chembl_pref_name>
None

> <i_lp_mmshare_version>
53161

> <r_lp_tautomer_probability>
1

> <s_lp_Force_Field>
OPLS_2005

> <r_lp_Energy>
41.295459

> <b_lp_Chiralities_Consistent>
1

> <s_lp_Variant>
CHEMBL1952_lig327 -1

> <s_i_glide_gridfile>
glide-grid_1syn

> <i_i_glide_lignum>
602

> <i_i_glide_rotatable_bonds>
9

> <r_i_docking_score>
-7.7179752990758

> <r_i_glide_ligand_efficiency>
-0.233878039365933

> <r_i_glide_ligand_efficiency_sa>
-0.750171839424019

> <r_i_glide_ligand_efficiency_ln>
-1.71643774497705

> <r_i_glide_gscore>
-7.7179752990758

> <r_i_glide_lipo>
-3.05937134574443

> <r_i_glide_hbond>
-0.152129390476732

> <r_i_glide_metal>
0

> <r_i_glide_rewards>
-1.37949820975066

> <r_i_glide_evdw>
-54.5350608825684

> <r_i_glide_ecoul>
-7.20620536804199

> <r_i_glide_erotb>
0.700143239275115

> <r_i_glide_esite>
-0.0194357430443737

> <r_i_glide_emodel>
-88.486832188971

> <r_i_glide_energy>
-61.7412662506104

> <r_i_glide_einternal>
5.14517974853516

> <i_i_glide_confnum>
52

> <i_i_glide_posenum>
227

> <r_i_glide_eff_state_penalty>
0

> <s_user_duplicate_titles>
CHEMBL1952_lig327 

> <i_f3d_flags>
0

> <s_m_subgroup_title>
dock_pv

> <s_m_subgroupid>
dock_pv

> <b_m_subgroup_collapsed>
1

$$$$
CHEMBL1952_lig215
                    3D
 Schrodinger Suite 2021-1.
 61 63  0  0  1  0            999 V2000
   12.9920   17.9711   31.4838 N   0  0  0  0  0  0
   13.1162   17.3927   30.2543 C   0  0  0  0  0  0
   14.0538   16.5559   29.9978 N   0  0  0  0  0  0
   13.7817   17.7646   32.5627 C   0  0  0  0  0  0
   13.5117   18.2281   33.6618 O   0  0  0  0  0  0
   14.9500   16.8714   32.2535 C   0  0  0  0  0  0
   15.0035   16.2701   30.9921 C   0  0  0  0  0  0
   16.0387   15.3890   30.6946 C   0  0  0  0  0  0
   17.0347   15.1485   31.6446 C   0  0  0  0  0  0
   16.9996   15.8006   32.8874 C   0  0  0  0  0  0
   15.9321   16.6361   33.2084 C   0  0  0  0  0  0
   18.1647   15.7004   33.8601 C   0  0  0  0  0  0
   18.5628   14.3258   34.1308 N   0  0  0  0  0  0
   17.7364   13.4445   34.8800 C   0  0  0  0  0  0
   18.0129   12.0732   34.9813 C   0  0  0  0  0  0
   17.1243   11.2009   35.6040 C   0  0  0  0  0  0
   15.9349   11.6707   36.1876 C   0  0  0  0  0  0
   15.7042   13.0578   36.1775 C   0  0  0  0  0  0
   16.5888   13.9167   35.5316 C   0  0  0  0  0  0
   14.8888   10.7126   36.7232 C   0  0  0  0  0  0
   13.7308   11.0839   36.9138 O   0  0  0  0  0  0
   15.2708    9.4284   36.8926 N   0  0  0  0  0  0
   14.3721    8.2690   37.0733 C   0  0  1  0  0  0
   13.5371    8.3493   38.3914 C   0  0  0  0  0  0
   13.5723    8.0355   35.7662 C   0  0  0  0  0  0
   12.3141    7.5657   35.9909 O   0  0  0  0  0  0
   14.0484    8.2279   34.6677 O   0  0  0  0  0  0
   14.3539    8.1528   39.6848 C   0  0  0  0  0  0
   14.5917    6.6725   39.9906 C   0  0  0  0  0  0
   15.8218    6.2401   39.5914 O   0  0  0  0  0  0
   13.7622    5.9533   40.5387 O   0  0  0  0  0  0
   12.1102   17.7459   29.1983 C   0  0  0  0  0  0
   14.6096   13.6029   36.7594 F   0  0  0  0  0  0
   19.8736   13.9486   33.6109 C   0  0  0  0  0  0
   21.0310   14.2267   34.5583 C   0  0  0  0  0  0
   22.3262   13.9148   34.3903 C   0  0  0  0  0  0
   12.2244   18.6015   31.6523 H   0  0  0  0  0  0
   16.0803   14.9139   29.7255 H   0  0  0  0  0  0
   17.8592   14.4928   31.3989 H   0  0  0  0  0  0
   15.8863   17.1308   34.1703 H   0  0  0  0  0  0
   18.9947   16.2297   33.4066 H   0  0  0  0  0  0
   17.9872   16.2256   34.7906 H   0  0  0  0  0  0
   18.8912   11.6323   34.5384 H   0  0  0  0  0  0
   17.3730   10.1505   35.5767 H   0  0  0  0  0  0
   16.3385   14.9646   35.5271 H   0  0  0  0  0  0
   16.2137    9.2002   36.6304 H   0  0  0  0  0  0
   15.0090    7.3876   37.1335 H   0  0  0  0  0  0
   12.9881    9.2887   38.4574 H   0  0  0  0  0  0
   12.7584    7.5830   38.3888 H   0  0  0  0  0  0
   11.8614    7.4285   35.1411 H   0  0  0  0  0  0
   15.2849    8.7192   39.6682 H   0  0  0  0  0  0
   13.7766    8.5524   40.5193 H   0  0  0  0  0  0
   16.3505    6.9304   39.1907 H   0  0  0  0  0  0
   11.6425   16.8400   28.8181 H   0  0  0  0  0  0
   11.3221   18.3928   29.5814 H   0  0  0  0  0  0
   12.5921   18.2622   28.3687 H   0  0  0  0  0  0
   19.7917   12.9116   33.3227 H   0  0  0  0  0  0
   20.0674   14.4634   32.6684 H   0  0  0  0  0  0
   20.7746   14.7560   35.4589 H   0  0  0  0  0  0
   23.0570   14.1502   35.1482 H   0  0  0  0  0  0
   22.6816   13.4280   33.4961 H   0  0  0  0  0  0
  1  2  1  0  0  0
  1  4  1  0  0  0
  1 37  1  0  0  0
  2 32  1  0  0  0
  2  3  2  0  0  0
  3  7  1  0  0  0
  4  6  1  0  0  0
  4  5  2  0  0  0
  6 11  1  0  0  0
  6  7  2  0  0  0
  7  8  1  0  0  0
  8  9  2  0  0  0
  8 38  1  0  0  0
  9 10  1  0  0  0
  9 39  1  0  0  0
 10 11  2  0  0  0
 10 12  1  0  0  0
 11 40  1  0  0  0
 12 13  1  0  0  0
 12 41  1  0  0  0
 12 42  1  0  0  0
 13 14  1  0  0  0
 13 34  1  0  0  0
 14 19  1  0  0  0
 14 15  2  0  0  0
 15 16  1  0  0  0
 15 43  1  0  0  0
 16 17  2  0  0  0
 16 44  1  0  0  0
 17 18  1  0  0  0
 17 20  1  0  0  0
 18 19  2  0  0  0
 18 33  1  0  0  0
 19 45  1  0  0  0
 20 21  2  0  0  0
 20 22  1  0  0  0
 22 23  1  0  0  0
 22 46  1  0  0  0
 23 24  1  0  0  0
 23 25  1  0  0  0
 23 47  1  0  0  0
 24 28  1  0  0  0
 24 48  1  0  0  0
 24 49  1  0  0  0
 25 26  1  0  0  0
 25 27  2  0  0  0
 26 50  1  0  0  0
 28 29  1  0  0  0
 28 51  1  0  0  0
 28 52  1  0  0  0
 29 30  1  0  0  0
 29 31  2  0  0  0
 30 53  1  0  0  0
 32 54  1  0  0  0
 32 55  1  0  0  0
 32 56  1  0  0  0
 34 35  1  0  0  0
 34 57  1  0  0  0
 34 58  1  0  0  0
 35 36  2  0  0  0
 35 59  1  0  0  0
 36 60  1  0  0  0
 36 61  1  0  0  0
M  END
> <s_m_entry_id>
41177

> <s_m_entry_name>
dock_pv.294

> <s_m_Source_Path>
/home/csk/Desktop/cluster/DUD-E-result/tysy

> <s_m_Source_File>
dock_pv.maegz

> <i_m_Source_File_Index>
294

> <chembl_id>
CHEMBL320108

> <chembl_pref_name>
None

> <i_lp_mmshare_version>
53161

> <r_lp_tautomer_probability>
0.883938

> <s_lp_Force_Field>
OPLS_2005

> <r_lp_Energy>
21.334125

> <b_lp_Chiralities_Consistent>
1

> <s_lp_Variant>
CHEMBL1952_lig215-1

> <s_i_glide_gridfile>
glide-grid_1syn

> <i_i_glide_lignum>
426

> <i_i_glide_rotatable_bonds>
14

> <r_i_docking_score>
-7.71285013184724

> <r_i_glide_ligand_efficiency>
-0.214245836995757

> <r_i_glide_ligand_efficiency_sa>
-0.707424166293502

> <r_i_glide_ligand_efficiency_ln>
-1.68273552163945

> <r_i_glide_gscore>
-7.71285013184724

> <r_i_glide_lipo>
-3.71548276129318

> <r_i_glide_hbond>
-0.392426186414201

> <r_i_glide_metal>
0

> <r_i_glide_rewards>
-1.10459474327116

> <r_i_glide_evdw>
-47.1711921691895

> <r_i_glide_ecoul>
-7.56354236602783

> <r_i_glide_erotb>
0.992744522494958

> <r_i_glide_esite>
0

> <r_i_glide_emodel>
-73.4023738850577

> <r_i_glide_energy>
-54.7347345352173

> <r_i_glide_einternal>
15.7728052139282

> <i_i_glide_confnum>
50

> <i_i_glide_posenum>
137

> <r_i_glide_eff_state_penalty>
0

> <s_user_duplicate_titles>
CHEMBL1952_lig215,CHEMBL1952_lig215,171637

> <i_f3d_flags>
0

> <s_m_subgroup_title>
dock_pv

> <s_m_subgroupid>
dock_pv

> <b_m_subgroup_collapsed>
1

$$$$
CHEMBL1952_lig342
                    3D
 Schrodinger Suite 2021-1.
 58 60  0  0  1  0            999 V2000
   14.0682   16.6562   30.1897 N   0  0  0  0  0  0
   15.1093   16.2129   30.9358 C   0  0  0  0  0  0
   13.4376   18.1154   31.9934 N   0  0  0  0  0  0
   15.3891   16.6881   32.2331 C   0  0  0  0  0  0
   14.4907   17.6561   32.7122 C   0  0  0  0  0  0
   13.2813   17.5962   30.7573 C   0  0  0  0  0  0
   16.7371   11.2594   35.8998 C   0  0  0  0  0  0
   15.6859   10.4667   36.4866 C   0  0  0  0  0  0
   16.5817   12.9745   35.5913 S   0  0  0  0  0  0
   14.4450   10.9602   36.3096 N   0  0  0  0  0  0
   15.8554   15.1755   30.3556 N   0  0  0  0  0  0
   13.1296   10.4033   36.6957 C   0  0  2  0  0  0
   18.0219   10.8338   35.5907 C   0  0  0  0  0  0
   12.7871    9.2513   35.6780 C   0  0  0  0  0  0
   18.2035   13.0899   34.9734 C   0  0  0  0  0  0
   18.8214   11.8478   35.0650 C   0  0  0  0  0  0
   16.6275   16.2104   32.9961 C   0  0  0  0  0  0
   12.8239   13.2065   38.5376 C   0  0  0  0  0  0
   15.9315    9.4292   37.1000 O   0  0  0  0  0  0
   13.5988    8.6277   35.0196 O   0  0  0  0  0  0
   12.0807   11.5751   36.6194 C   0  0  0  0  0  0
   12.2242   12.6122   39.4327 O   0  0  0  0  0  0
   14.6376   18.2276   33.9716 N   0  0  0  0  0  0
   12.2072   18.0579   30.0106 N   0  0  0  0  0  0
   17.1680   14.8203   30.8983 C   0  0  0  0  0  0
   12.5234   13.0112   37.0460 C   0  0  0  0  0  0
   18.7868   14.3975   34.4814 C   0  0  0  0  0  0
   11.4472    9.0280   35.5908 O   0  0  0  0  0  0
   17.2025   14.8831   32.4434 C   0  0  1  0  0  0
   13.7918   14.1452   38.7457 O   0  0  0  0  0  0
   18.6355   14.6026   32.9610 C   0  0  0  0  0  0
   13.1363    9.8131   38.1341 C   0  0  0  0  0  0
   14.3892   11.6773   35.6038 H   0  0  0  0  0  0
   15.7172   14.9778   29.3769 H   0  0  0  0  0  0
   18.3781    9.8273   35.7369 H   0  0  0  0  0  0
   19.8463   11.6817   34.7710 H   0  0  0  0  0  0
   16.3944   16.0962   34.0547 H   0  0  0  0  0  0
   17.3874   16.9888   32.9390 H   0  0  0  0  0  0
   11.1802   11.3052   37.1769 H   0  0  0  0  0  0
   11.7361   11.6740   35.5903 H   0  0  0  0  0  0
   15.3897   17.9334   34.5724 H   0  0  0  0  0  0
   13.9800   18.9481   34.2507 H   0  0  0  0  0  0
   11.6079   18.7793   30.3898 H   0  0  0  0  0  0
   12.1191   17.7630   29.0536 H   0  0  0  0  0  0
   17.9561   15.4276   30.4582 H   0  0  0  0  0  0
   17.4104   13.8103   30.5611 H   0  0  0  0  0  0
   11.7157   13.7062   36.8121 H   0  0  0  0  0  0
   13.3648   13.3406   36.4376 H   0  0  0  0  0  0
   18.3705   15.2458   35.0233 H   0  0  0  0  0  0
   19.8509   14.4148   34.7205 H   0  0  0  0  0  0
   11.2970    8.3377   34.9306 H   0  0  0  0  0  0
   16.5923   14.0569   32.7960 H   0  0  0  0  0  0
   14.1580   14.5005   37.9342 H   0  0  0  0  0  0
   19.2829   15.4258   32.6714 H   0  0  0  0  0  0
   19.0489   13.7285   32.4504 H   0  0  0  0  0  0
   12.1285    9.6013   38.4922 H   0  0  0  0  0  0
   13.6911    8.8753   38.1982 H   0  0  0  0  0  0
   13.5979   10.4973   38.8451 H   0  0  0  0  0  0
  1  2  2  0  0  0
  1  6  1  0  0  0
  2  4  1  0  0  0
  2 11  1  0  0  0
  3  6  2  0  0  0
  3  5  1  0  0  0
  4 17  1  0  0  0
  4  5  2  0  0  0
  5 23  1  0  0  0
  6 24  1  0  0  0
  7  9  1  0  0  0
  7  8  1  0  0  0
  7 13  2  0  0  0
  8 10  1  0  0  0
  8 19  2  0  0  0
  9 15  1  0  0  0
 10 12  1  0  0  0
 10 33  1  0  0  0
 11 25  1  0  0  0
 11 34  1  0  0  0
 12 14  1  0  0  0
 12 21  1  0  0  0
 12 32  1  0  0  0
 13 16  1  0  0  0
 13 35  1  0  0  0
 14 20  2  0  0  0
 14 28  1  0  0  0
 15 27  1  0  0  0
 15 16  2  0  0  0
 16 36  1  0  0  0
 17 29  1  0  0  0
 17 37  1  0  0  0
 17 38  1  0  0  0
 18 26  1  0  0  0
 18 22  2  0  0  0
 18 30  1  0  0  0
 21 26  1  0  0  0
 21 39  1  0  0  0
 21 40  1  0  0  0
 23 41  1  0  0  0
 23 42  1  0  0  0
 24 43  1  0  0  0
 24 44  1  0  0  0
 25 29  1  0  0  0
 25 45  1  0  0  0
 25 46  1  0  0  0
 26 47  1  0  0  0
 26 48  1  0  0  0
 27 31  1  0  0  0
 27 49  1  0  0  0
 27 50  1  0  0  0
 28 51  1  0  0  0
 29 31  1  0  0  0
 29 52  1  0  0  0
 30 53  1  0  0  0
 31 54  1  0  0  0
 31 55  1  0  0  0
 32 56  1  0  0  0
 32 57  1  0  0  0
 32 58  1  0  0  0
M  END
> <s_m_entry_id>
41179

> <s_m_entry_name>
dock_pv.296

> <s_m_Source_Path>
/home/csk/Desktop/cluster/DUD-E-result/tysy

> <s_m_Source_File>
dock_pv.maegz

> <i_m_Source_File_Index>
296

> <chembl_id>
CHEMBL168069

> <chembl_pref_name>
None

> <i_lp_mmshare_version>
53161

> <r_lp_tautomer_probability>
1

> <s_lp_Force_Field>
OPLS_2005

> <r_lp_Energy>
8.391039

> <b_lp_Chiralities_Consistent>
1

> <s_lp_Variant>
CHEMBL1952_lig342-4

> <s_i_glide_gridfile>
glide-grid_1syn

> <i_i_glide_lignum>
626

> <i_i_glide_rotatable_bonds>
12

> <r_i_docking_score>
-7.70759374432727

> <r_i_glide_ligand_efficiency>
-0.240862304510227

> <r_i_glide_ligand_efficiency_sa>
-0.764690150234634

> <r_i_glide_ligand_efficiency_ln>
-1.72594034042522

> <r_i_glide_gscore>
-7.70759374432727

> <r_i_glide_lipo>
-2.75060801488021

> <r_i_glide_hbond>
-0.338504029214254

> <r_i_glide_metal>
0

> <r_i_glide_rewards>
-0.946138080100775

> <r_i_glide_evdw>
-52.3552894592285

> <r_i_glide_ecoul>
-13.2938413619995

> <r_i_glide_erotb>
0.941654033892561

> <r_i_glide_esite>
-0.0021569767632394

> <r_i_glide_emodel>
-92.4620721675535

> <r_i_glide_energy>
-65.649130821228

> <r_i_glide_einternal>
9.68406391143799

> <i_i_glide_confnum>
359

> <i_i_glide_posenum>
259

> <r_i_glide_eff_state_penalty>
0

> <s_user_duplicate_titles>
CHEMBL1952_lig342

> <i_f3d_flags>
0

> <s_m_subgroup_title>
dock_pv

> <s_m_subgroupid>
dock_pv

> <b_m_subgroup_collapsed>
1

$$$$
CHEMBL1952_lig70
                    3D
 Schrodinger Suite 2021-1.
 28 30  0  0  1  0            999 V2000
   14.7448   16.5206   30.1208 C   0  0  0  0  0  0
   14.9880   16.5158   31.5509 C   0  0  0  0  0  0
   13.8555   17.3643   29.5486 N   0  0  0  0  0  0
   13.1385   18.1591   30.3583 C   0  0  0  0  0  0
   13.2139   18.2031   31.7013 N   0  0  0  0  0  0
   14.1183   17.3771   32.2954 C   0  0  0  0  0  0
   15.9608   15.7353   32.2692 C   0  0  0  0  0  0
   15.9189   15.6878   33.7073 C   0  0  0  0  0  0
   14.9929   16.5194   34.3879 C   0  0  0  0  0  0
   15.3603   15.5930   29.3292 O   0  0  0  0  0  0
   14.1485   17.3750   33.7004 C   0  0  0  0  0  0
   16.8137   14.8107   34.4118 C   0  0  0  0  0  0
   12.1951   18.9681   29.7463 N   0  0  0  0  0  0
   17.0100   15.0039   31.6237 C   0  0  0  0  0  0
   17.8939   14.2106   32.3411 C   0  0  0  0  0  0
   17.7838   14.0967   33.7147 C   0  0  0  0  0  0
   16.7285   14.6263   35.9255 C   0  0  0  0  0  0
   14.9636   16.5281   35.4672 H   0  0  0  0  0  0
   15.7518   14.8879   29.8464 H   0  0  0  0  0  0
   13.4782   18.0269   34.2454 H   0  0  0  0  0  0
   12.0489   18.8662   28.7551 H   0  0  0  0  0  0
   11.4983   19.4281   30.3175 H   0  0  0  0  0  0
   17.2108   15.0792   30.5713 H   0  0  0  0  0  0
   18.6774   13.6713   31.8250 H   0  0  0  0  0  0
   18.4755   13.4523   34.2390 H   0  0  0  0  0  0
   15.6985   14.5853   36.2810 H   0  0  0  0  0  0
   17.2444   15.4278   36.4458 H   0  0  0  0  0  0
   17.1951   13.6895   36.2328 H   0  0  0  0  0  0
  1  2  1  0  0  0
  1  3  2  0  0  0
  1 10  1  0  0  0
  2  6  2  0  0  0
  2  7  1  0  0  0
  3  4  1  0  0  0
  4  5  2  0  0  0
  4 13  1  0  0  0
  5  6  1  0  0  0
  6 11  1  0  0  0
  7  8  2  0  0  0
  7 14  1  0  0  0
  8  9  1  0  0  0
  8 12  1  0  0  0
  9 11  2  0  0  0
  9 18  1  0  0  0
 10 19  1  0  0  0
 11 20  1  0  0  0
 12 17  1  0  0  0
 12 16  2  0  0  0
 13 21  1  0  0  0
 13 22  1  0  0  0
 14 15  2  0  0  0
 14 23  1  0  0  0
 15 16  1  0  0  0
 15 24  1  0  0  0
 16 25  1  0  0  0
 17 26  1  0  0  0
 17 27  1  0  0  0
 17 28  1  0  0  0
M  END
> <s_m_entry_id>
41180

> <s_m_entry_name>
dock_pv.297

> <s_m_Source_Path>
/home/csk/Desktop/cluster/DUD-E-result/tysy

> <s_m_Source_File>
dock_pv.maegz

> <i_m_Source_File_Index>
297

> <chembl_id>
CHEMBL73601

> <chembl_pref_name>
None

> <i_lp_mmshare_version>
53161

> <r_lp_tautomer_probability>
1

> <s_lp_Force_Field>
OPLS_2005

> <r_lp_Energy>
15.372355

> <b_lp_Chiralities_Consistent>
1

> <s_lp_Variant>
CHEMBL1952_lig70-1

> <s_i_glide_gridfile>
glide-grid_1syn

> <i_i_glide_lignum>
105

> <i_i_glide_rotatable_bonds>
1

> <r_i_docking_score>
-7.69953647801556

> <r_i_glide_ligand_efficiency>
-0.452913910471504

> <r_i_glide_ligand_efficiency_sa>
-1.16456919904859

> <r_i_glide_ligand_efficiency_ln>
-2.00863760686696

> <r_i_glide_gscore>
-7.69953647801556

> <r_i_glide_lipo>
-2.97887698655235

> <r_i_glide_hbond>
-0.21331277791854

> <r_i_glide_metal>
0

> <r_i_glide_rewards>
-2.1631144941278

> <r_i_glide_evdw>
-34.6210479736328

> <r_i_glide_ecoul>
-3.75709199905396

> <r_i_glide_erotb>
0

> <r_i_glide_esite>
-0.0496160208771416

> <r_i_glide_emodel>
-57.6079249969031

> <r_i_glide_energy>
-38.3781399726868

> <r_i_glide_einternal>
0.0483523868024349

> <i_i_glide_confnum>
1

> <i_i_glide_posenum>
83

> <r_i_glide_eff_state_penalty>
0

> <s_user_duplicate_titles>
CHEMBL1952_lig70

> <i_f3d_flags>
0

> <s_m_subgroup_title>
dock_pv

> <s_m_subgroupid>
dock_pv

> <b_m_subgroup_collapsed>
1

$$$$
CHEMBL1952_lig181
                    3D
 Schrodinger Suite 2021-1.
 57 59  0  0  1  0            999 V2000
   13.2453   17.9537   31.4351 N   0  0  0  0  0  0
   13.2679   17.1913   30.4131 C   0  0  0  0  0  0
   14.2183   16.2114   30.1836 N   0  0  0  0  0  0
   14.2133   17.8827   32.4418 C   0  0  0  0  0  0
   12.1731   17.3532   29.3877 C   0  0  0  0  0  0
   14.2642   18.6001   33.4361 O   0  0  0  0  0  0
   15.2800   16.8185   32.2435 C   0  0  0  0  0  0
   15.2460   16.0009   31.1081 C   0  0  0  0  0  0
   16.2244   15.0323   30.9058 C   0  0  0  0  0  0
   17.2508   14.8854   31.8456 C   0  0  0  0  0  0
   17.3014   15.7112   32.9816 C   0  0  0  0  0  0
   16.3092   16.6733   33.1750 C   0  0  0  0  0  0
   18.4499   15.6379   33.9896 C   0  0  0  0  0  0
   18.8963   14.2736   34.2842 N   0  0  0  0  0  0
   18.0278   13.3064   34.8538 C   0  0  0  0  0  0
   16.8161   13.7059   35.4295 C   0  0  0  0  0  0
   15.9528   12.7798   35.9914 C   0  0  0  0  0  0
   16.2874   11.4196   36.0149 C   0  0  0  0  0  0
   17.5098   11.0101   35.4746 C   0  0  0  0  0  0
   18.3618   11.9400   34.8848 C   0  0  0  0  0  0
   15.3593   10.4175   36.6484 C   0  0  0  0  0  0
   15.7912    9.4287   37.2493 O   0  0  0  0  0  0
   14.0547   10.7090   36.5146 N   0  0  0  0  0  0
   12.9297    9.9964   37.1209 C   0  0  1  0  0  0
   12.2518   10.9412   38.1559 C   0  0  0  0  0  0
   11.9591    9.4916   36.0326 C   0  0  0  0  0  0
   12.5921    8.6246   35.1920 O   0  0  0  0  0  0
   10.7869    9.7994   35.9672 O   0  0  0  0  0  0
   13.1623   11.3619   39.3345 C   0  0  0  0  0  0
   12.5288   12.4540   40.1935 C   0  0  0  0  0  0
   12.7919   13.7080   39.7272 O   0  0  0  0  0  0
   11.8473   12.2292   41.1908 O   0  0  0  0  0  0
   20.1928   13.8842   33.7472 C   0  0  0  0  0  0
   14.1923   15.6503   29.3515 H   0  0  0  0  0  0
   11.5550   18.2325   29.5885 H   0  0  0  0  0  0
   12.5935   17.4774   28.3915 H   0  0  0  0  0  0
   11.5129   16.4865   29.3897 H   0  0  0  0  0  0
   16.2042   14.3989   30.0321 H   0  0  0  0  0  0
   18.0151   14.1400   31.6832 H   0  0  0  0  0  0
   16.3521   17.3308   34.0300 H   0  0  0  0  0  0
   18.1921   16.1238   34.9236 H   0  0  0  0  0  0
   19.2748   16.2264   33.5920 H   0  0  0  0  0  0
   16.5208   14.7430   35.4554 H   0  0  0  0  0  0
   15.0363   13.1438   36.4319 H   0  0  0  0  0  0
   17.8022    9.9679   35.4897 H   0  0  0  0  0  0
   19.2807   11.5757   34.4481 H   0  0  0  0  0  0
   13.8061   11.4748   35.9069 H   0  0  0  0  0  0
   13.2843    9.1101   37.6487 H   0  0  0  0  0  0
   11.3686   10.4509   38.5716 H   0  0  0  0  0  0
   11.8830   11.8354   37.6463 H   0  0  0  0  0  0
   11.9602    8.1843   34.6047 H   0  0  0  0  0  0
   14.1325   11.7201   38.9884 H   0  0  0  0  0  0
   13.3678   10.4972   39.9689 H   0  0  0  0  0  0
   13.3212   13.7082   38.9272 H   0  0  0  0  0  0
   20.7011   13.1755   34.3956 H   0  0  0  0  0  0
   20.0501   13.4292   32.7716 H   0  0  0  0  0  0
   20.8657   14.7298   33.6147 H   0  0  0  0  0  0
  1  2  2  0  0  0
  1  4  1  0  0  0
  2  3  1  0  0  0
  2  5  1  0  0  0
  3  8  1  0  0  0
  3 34  1  0  0  0
  4  6  2  0  0  0
  4  7  1  0  0  0
  5 35  1  0  0  0
  5 36  1  0  0  0
  5 37  1  0  0  0
  7 12  1  0  0  0
  7  8  2  0  0  0
  8  9  1  0  0  0
  9 10  2  0  0  0
  9 38  1  0  0  0
 10 11  1  0  0  0
 10 39  1  0  0  0
 11 12  2  0  0  0
 11 13  1  0  0  0
 12 40  1  0  0  0
 13 14  1  0  0  0
 13 41  1  0  0  0
 13 42  1  0  0  0
 14 15  1  0  0  0
 14 33  1  0  0  0
 15 16  2  0  0  0
 15 20  1  0  0  0
 16 17  1  0  0  0
 16 43  1  0  0  0
 17 18  2  0  0  0
 17 44  1  0  0  0
 18 19  1  0  0  0
 18 21  1  0  0  0
 19 20  2  0  0  0
 19 45  1  0  0  0
 20 46  1  0  0  0
 21 22  2  0  0  0
 21 23  1  0  0  0
 23 24  1  0  0  0
 23 47  1  0  0  0
 24 25  1  0  0  0
 24 26  1  0  0  0
 24 48  1  0  0  0
 25 29  1  0  0  0
 25 49  1  0  0  0
 25 50  1  0  0  0
 26 27  1  0  0  0
 26 28  2  0  0  0
 27 51  1  0  0  0
 29 30  1  0  0  0
 29 52  1  0  0  0
 29 53  1  0  0  0
 30 31  1  0  0  0
 30 32  2  0  0  0
 31 54  1  0  0  0
 33 55  1  0  0  0
 33 56  1  0  0  0
 33 57  1  0  0  0
M  END
> <s_m_entry_id>
41181

> <s_m_entry_name>
dock_pv.298

> <s_m_Source_Path>
/home/csk/Desktop/cluster/DUD-E-result/tysy

> <s_m_Source_File>
dock_pv.maegz

> <i_m_Source_File_Index>
298

> <chembl_id>
CHEMBL40321

> <chembl_pref_name>
None

> <i_lp_mmshare_version>
53161

> <r_lp_tautomer_probability>
0.116051

> <s_lp_Force_Field>
OPLS_2005

> <r_lp_Energy>
17.87437

> <b_lp_Chiralities_Consistent>
1

> <s_lp_Variant>
CHEMBL1952_lig181-2

> <s_i_glide_gridfile>
glide-grid_1syn

> <i_i_glide_lignum>
360

> <i_i_glide_rotatable_bonds>
12

> <r_i_docking_score>
-7.69751871705301

> <r_i_glide_ligand_efficiency>
-0.233258142941

> <r_i_glide_ligand_efficiency_sa>
-0.748183500362323

> <r_i_glide_ligand_efficiency_ln>
-1.7118883070537

> <r_i_glide_gscore>
-7.69751871705301

> <r_i_glide_lipo>
-3.34233941908872

> <r_i_glide_hbond>
-0.300161260130419

> <r_i_glide_metal>
0

> <r_i_glide_rewards>
-0.843467716647156

> <r_i_glide_evdw>
-51.9986915588379

> <r_i_glide_ecoul>
-10.4190063476562

> <r_i_glide_erotb>
0.980133647451698

> <r_i_glide_esite>
-0.0288984385480817

> <r_i_glide_emodel>
-88.4889338715573

> <r_i_glide_energy>
-62.4176979064941

> <r_i_glide_einternal>
6.41057109832764

> <i_i_glide_confnum>
125

> <i_i_glide_posenum>
198

> <r_i_glide_eff_state_penalty>
0

> <s_user_duplicate_titles>
CHEMBL1952_lig181,61629

> <i_f3d_flags>
0

> <s_m_subgroup_title>
dock_pv

> <s_m_subgroupid>
dock_pv

> <b_m_subgroup_collapsed>
1

$$$$
CHEMBL1952_lig407
                    3D
 Schrodinger Suite 2021-1.
 56 60  0  0  1  0            999 V2000
   17.9910   14.9036   33.6161 S   0  0  0  0  0  0
   14.7021    7.7301   37.6321 N   0  0  0  0  0  0
   14.2004    6.6582   37.0857 C   0  0  0  0  0  0
   12.9024   12.2872   37.4252 N   0  0  0  0  0  0
   12.8729   10.9266   37.0891 C   0  0  0  0  0  0
   13.8349    8.7219   37.2617 C   0  0  0  0  0  0
   13.0547    6.8786   36.3693 N   0  0  0  0  0  0
   13.8820   10.0787   37.5706 C   0  0  0  0  0  0
   12.7779    8.2212   36.4733 C   0  0  0  0  0  0
   11.8123   10.4038   36.3027 C   0  0  0  0  0  0
   16.8363   14.2866   34.8382 C   0  0  0  0  0  0
   16.9856   15.2180   32.1709 C   0  0  0  0  0  0
   11.7584    9.0378   35.9910 C   0  0  0  0  0  0
   18.4710   16.2065   34.0899 O   0  0  0  0  0  0
   18.9284   13.8236   33.3011 O   0  0  0  0  0  0
   14.0805   13.0229   37.8969 C   0  0  0  0  0  0
   14.7301    5.4182   37.1908 N   0  0  0  0  0  0
   17.0031   13.0294   35.4246 C   0  0  0  0  0  0
   15.7488   15.0816   35.1918 C   0  0  0  0  0  0
   16.9920   14.3450   31.0832 C   0  0  0  0  0  0
   16.1802   16.3555   32.1541 C   0  0  0  0  0  0
   15.0235   13.4117   36.7656 C   0  0  0  0  0  0
   11.8397   13.2085   36.9879 C   0  0  0  0  0  0
   15.3891   15.7722   29.9465 C   0  0  0  0  0  0
   14.8368   14.6348   36.1318 C   0  0  0  0  0  0
   16.0971   12.5946   36.3929 C   0  0  0  0  0  0
   15.3704   16.6247   31.0583 C   0  0  0  0  0  0
   16.1895   14.6272   29.9778 C   0  0  0  0  0  0
   10.7116   11.3207   35.7724 C   0  0  0  0  0  0
   14.6694   16.0075   28.7913 O   0  0  0  0  0  0
   10.5055   12.4936   36.7350 C   0  0  0  0  0  0
   13.9663   17.2425   28.6511 C   0  0  0  0  0  0
   12.5456    6.1508   35.8902 H   0  0  0  0  0  0
   14.6881   10.4421   38.1841 H   0  0  0  0  0  0
   10.9610    8.6350   35.3837 H   0  0  0  0  0  0
   13.7789   13.9271   38.4290 H   0  0  0  0  0  0
   14.6193   12.4511   38.6489 H   0  0  0  0  0  0
   15.5339    5.2391   37.7708 H   0  0  0  0  0  0
   14.3752    4.6446   36.6368 H   0  0  0  0  0  0
   17.8420   12.4043   35.1507 H   0  0  0  0  0  0
   15.6039   16.0592   34.7641 H   0  0  0  0  0  0
   17.6158   13.4605   31.0871 H   0  0  0  0  0  0
   16.1953   17.0564   32.9747 H   0  0  0  0  0  0
   11.7804   14.1450   37.5446 H   0  0  0  0  0  0
   12.1614   13.5181   35.9917 H   0  0  0  0  0  0
   14.0092   15.2710   36.3923 H   0  0  0  0  0  0
   16.2549   11.6415   36.8737 H   0  0  0  0  0  0
   14.7649   17.5181   31.0769 H   0  0  0  0  0  0
   16.1959   13.9590   29.1290 H   0  0  0  0  0  0
   10.9910   11.6941   34.7867 H   0  0  0  0  0  0
    9.7759   10.7753   35.6404 H   0  0  0  0  0  0
   10.0995   12.1352   37.6827 H   0  0  0  0  0  0
    9.7685   13.1973   36.3465 H   0  0  0  0  0  0
   13.5883   17.3386   27.6341 H   0  0  0  0  0  0
   13.1141   17.2926   29.3300 H   0  0  0  0  0  0
   14.6119   18.1049   28.8247 H   0  0  0  0  0  0
  1 11  1  0  0  0
  1 12  1  0  0  0
  1 14  2  0  0  0
  1 15  2  0  0  0
  2  6  1  0  0  0
  2  3  2  0  0  0
  3 17  1  0  0  0
  3  7  1  0  0  0
  4 16  1  0  0  0
  4  5  1  0  0  0
  4 23  1  0  0  0
  5  8  1  0  0  0
  5 10  2  0  0  0
  6  8  2  0  0  0
  6  9  1  0  0  0
  7  9  1  0  0  0
  7 33  1  0  0  0
  8 34  1  0  0  0
  9 13  2  0  0  0
 10 13  1  0  0  0
 10 29  1  0  0  0
 11 18  1  0  0  0
 11 19  2  0  0  0
 12 20  2  0  0  0
 12 21  1  0  0  0
 13 35  1  0  0  0
 16 22  1  0  0  0
 16 36  1  0  0  0
 16 37  1  0  0  0
 17 38  1  0  0  0
 17 39  1  0  0  0
 18 26  2  0  0  0
 18 40  1  0  0  0
 19 25  1  0  0  0
 19 41  1  0  0  0
 20 28  1  0  0  0
 20 42  1  0  0  0
 21 27  2  0  0  0
 21 43  1  0  0  0
 22 25  2  0  0  0
 22 26  1  0  0  0
 23 31  1  0  0  0
 23 44  1  0  0  0
 23 45  1  0  0  0
 24 27  1  0  0  0
 24 30  1  0  0  0
 24 28  2  0  0  0
 25 46  1  0  0  0
 26 47  1  0  0  0
 27 48  1  0  0  0
 28 49  1  0  0  0
 29 31  1  0  0  0
 29 50  1  0  0  0
 29 51  1  0  0  0
 30 32  1  0  0  0
 31 52  1  0  0  0
 31 53  1  0  0  0
 32 54  1  0  0  0
 32 55  1  0  0  0
 32 56  1  0  0  0
M  END
> <s_m_entry_id>
41182

> <s_m_entry_name>
dock_pv.299

> <s_m_Source_Path>
/home/csk/Desktop/cluster/DUD-E-result/tysy

> <s_m_Source_File>
dock_pv.maegz

> <i_m_Source_File_Index>
299

> <chembl_id>
CHEMBL171314

> <chembl_pref_name>
None

> <i_lp_mmshare_version>
53161

> <r_lp_tautomer_probability>
1

> <s_lp_Force_Field>
OPLS_2005

> <r_lp_Energy>
19.750085

> <b_lp_Chiralities_Consistent>
1

> <s_lp_Variant>
CHEMBL1952_lig407-1

> <s_i_glide_gridfile>
glide-grid_1syn

> <i_i_glide_lignum>
798

> <i_i_glide_rotatable_bonds>
5

> <r_i_docking_score>
-7.68944201891313

> <r_i_glide_ligand_efficiency>
-0.240295063091035

> <r_i_glide_ligand_efficiency_sa>
-0.762889270985625

> <r_i_glide_ligand_efficiency_ln>
-1.72187567430764

> <r_i_glide_gscore>
-7.68944201891313

> <r_i_glide_lipo>
-3.91444766547704

> <r_i_glide_hbond>
-0.32

> <r_i_glide_metal>
0

> <r_i_glide_rewards>
-0.858434349592858

> <r_i_glide_evdw>
-46.4365463256836

> <r_i_glide_ecoul>
-3.62517094612122

> <r_i_glide_erotb>
0.398308414416732

> <r_i_glide_esite>
-0.129265460057602

> <r_i_glide_emodel>
-68.5201639764155

> <r_i_glide_energy>
-50.0617172718048

> <r_i_glide_einternal>
5.93546295166016

> <i_i_glide_confnum>
19

> <i_i_glide_posenum>
15

> <r_i_glide_eff_state_penalty>
0

> <s_user_duplicate_titles>
CHEMBL1952_lig407,282399

> <i_f3d_flags>
0

> <s_m_subgroup_title>
dock_pv

> <s_m_subgroupid>
dock_pv

> <b_m_subgroup_collapsed>
1

$$$$
CHEMBL1952_lig268
                    3D
 Schrodinger Suite 2021-1.
 31 33  0  0  1  0            999 V2000
   13.5834   19.0277   32.9611 N   0  0  0  0  0  0
   12.9147   19.0665   31.7585 C   0  0  0  0  0  0
   13.1100   18.1688   30.8469 N   0  0  0  0  0  0
   14.5989   18.1936   33.3209 C   0  0  0  0  0  0
   14.8620   17.2078   32.2785 C   0  0  0  0  0  0
   14.0866   17.2568   31.1248 C   0  0  0  0  0  0
   14.5236   16.2775   30.2847 N   0  0  0  0  0  0
   15.5729   15.6088   30.8708 C   0  0  0  0  0  0
   15.8036   16.1718   32.1364 C   0  0  0  0  0  0
   15.1635   18.3385   34.3911 O   0  0  0  0  0  0
   11.9537   20.2085   31.5612 C   0  0  0  0  0  0
   16.2841   14.5191   30.1050 C   0  0  0  0  0  0
   17.1434   15.7892   33.2296 S   0  0  0  0  0  0
   16.4238   14.7716   34.4896 C   0  0  0  0  0  0
   17.1610   13.6909   34.9827 C   0  0  0  0  0  0
   16.5893   12.8844   35.9696 C   0  0  0  0  0  0
   15.3544   13.1113   36.4842 N   0  0  0  0  0  0
   14.6605   14.1774   36.0117 C   0  0  0  0  0  0
   15.1552   15.0279   35.0222 C   0  0  0  0  0  0
   13.3596   19.7262   33.6655 H   0  0  0  0  0  0
   14.1650   16.1113   29.3571 H   0  0  0  0  0  0
   11.7923   20.4050   30.5005 H   0  0  0  0  0  0
   10.9905   19.9784   32.0087 H   0  0  0  0  0  0
   12.3269   21.1301   32.0088 H   0  0  0  0  0  0
   16.9443   13.9335   30.7469 H   0  0  0  0  0  0
   15.5915   13.8154   29.6391 H   0  0  0  0  0  0
   16.9024   14.9340   29.3087 H   0  0  0  0  0  0
   18.1478   13.4735   34.5991 H   0  0  0  0  0  0
   17.1242   12.0339   36.3662 H   0  0  0  0  0  0
   13.6824   14.3410   36.4391 H   0  0  0  0  0  0
   14.5535   15.8534   34.6859 H   0  0  0  0  0  0
  1  2  1  0  0  0
  1  4  1  0  0  0
  1 20  1  0  0  0
  2 11  1  0  0  0
  2  3  2  0  0  0
  3  6  1  0  0  0
  4  5  1  0  0  0
  4 10  2  0  0  0
  5  9  1  0  0  0
  5  6  2  0  0  0
  6  7  1  0  0  0
  7  8  1  0  0  0
  7 21  1  0  0  0
  8 12  1  0  0  0
  8  9  2  0  0  0
  9 13  1  0  0  0
 11 22  1  0  0  0
 11 23  1  0  0  0
 11 24  1  0  0  0
 12 25  1  0  0  0
 12 26  1  0  0  0
 12 27  1  0  0  0
 13 14  1  0  0  0
 14 15  2  0  0  0
 14 19  1  0  0  0
 15 16  1  0  0  0
 15 28  1  0  0  0
 16 17  2  0  0  0
 16 29  1  0  0  0
 17 18  1  0  0  0
 18 19  2  0  0  0
 18 30  1  0  0  0
 19 31  1  0  0  0
M  END
> <s_m_entry_id>
41183

> <s_m_entry_name>
dock_pv.300

> <s_m_Source_Path>
/home/csk/Desktop/cluster/DUD-E-result/tysy

> <s_m_Source_File>
dock_pv.maegz

> <i_m_Source_File_Index>
300

> <chembl_id>
CHEMBL1096259

> <chembl_pref_name>
None

> <i_lp_mmshare_version>
53161

> <r_lp_tautomer_probability>
1

> <s_lp_Force_Field>
OPLS_2005

> <r_lp_Energy>
13.674575

> <b_lp_Chiralities_Consistent>
1

> <s_lp_Variant>
CHEMBL1952_lig268-1

> <s_i_glide_gridfile>
glide-grid_1syn

> <i_i_glide_lignum>
532

> <i_i_glide_rotatable_bonds>
2

> <r_i_docking_score>
-7.68777845180553

> <r_i_glide_ligand_efficiency>
-0.404619918516081

> <r_i_glide_ligand_efficiency_sa>
-1.07968845661436

> <r_i_glide_ligand_efficiency_ln>
-1.94901695587395

> <r_i_glide_gscore>
-7.68777845180553

> <r_i_glide_lipo>
-3.21641153869906

> <r_i_glide_hbond>
-0.16

> <r_i_glide_metal>
0

> <r_i_glide_rewards>
-2.33240402914479

> <r_i_glide_evdw>
-39.860237121582

> <r_i_glide_ecoul>
-3.02143621444702

> <r_i_glide_erotb>
0.483261287777251

> <r_i_glide_esite>
-0.0159968834927801

> <r_i_glide_emodel>
-65.1428009790095

> <r_i_glide_energy>
-42.8816733360291

> <r_i_glide_einternal>
0.543683588504791

> <i_i_glide_confnum>
3

> <i_i_glide_posenum>
148

> <r_i_glide_eff_state_penalty>
0

> <s_user_duplicate_titles>
CHEMBL1952_lig268,625071

> <i_f3d_flags>
0

> <s_m_subgroup_title>
dock_pv

> <s_m_subgroupid>
dock_pv

> <b_m_subgroup_collapsed>
1

$$$$
CHEMBL1952_lig46
                    3D
 Schrodinger Suite 2021-1.
 25 27  0  0  1  0            999 V2000
   14.1957   17.8286   32.2401 C   0  0  0  0  0  0
   13.2656   18.5328   31.5519 N   0  0  0  0  0  0
   14.9696   16.7657   31.6191 C   0  0  0  0  0  0
   13.0963   18.2407   30.2516 C   0  0  0  0  0  0
   13.7362   17.2886   29.5552 N   0  0  0  0  0  0
   14.6590   16.5556   30.2308 C   0  0  0  0  0  0
   15.9884   15.9405   32.2157 C   0  0  0  0  0  0
   14.4049   18.1673   33.5447 O   0  0  0  0  0  0
   15.3162   15.5661   29.4826 C   0  0  0  0  0  0
   16.6654   14.9640   31.4069 C   0  0  0  0  0  0
   12.1920   19.0118   29.5490 N   0  0  0  0  0  0
   16.2982   14.7878   30.0602 C   0  0  0  0  0  0
   16.3944   16.0160   33.5876 C   0  0  0  0  0  0
   17.7010   14.1631   31.9545 C   0  0  0  0  0  0
   17.4114   15.2110   34.0949 C   0  0  0  0  0  0
   18.0668   14.2969   33.2851 C   0  0  0  0  0  0
   13.8242   18.8952   33.7871 H   0  0  0  0  0  0
   15.0558   15.4218   28.4431 H   0  0  0  0  0  0
   11.9795   18.7581   28.5975 H   0  0  0  0  0  0
   11.5389   19.5858   30.0721 H   0  0  0  0  0  0
   16.7917   14.0305   29.4717 H   0  0  0  0  0  0
   15.9352   16.6858   34.2887 H   0  0  0  0  0  0
   18.2115   13.4374   31.3332 H   0  0  0  0  0  0
   17.6979   15.2925   35.1320 H   0  0  0  0  0  0
   18.8578   13.6795   33.6862 H   0  0  0  0  0  0
  1  2  2  0  0  0
  1  3  1  0  0  0
  1  8  1  0  0  0
  2  4  1  0  0  0
  3  6  2  0  0  0
  3  7  1  0  0  0
  4 11  1  0  0  0
  4  5  2  0  0  0
  5  6  1  0  0  0
  6  9  1  0  0  0
  7 10  2  0  0  0
  7 13  1  0  0  0
  8 17  1  0  0  0
  9 12  2  0  0  0
  9 18  1  0  0  0
 10 12  1  0  0  0
 10 14  1  0  0  0
 11 19  1  0  0  0
 11 20  1  0  0  0
 12 21  1  0  0  0
 13 15  2  0  0  0
 13 22  1  0  0  0
 14 16  2  0  0  0
 14 23  1  0  0  0
 15 16  1  0  0  0
 15 24  1  0  0  0
 16 25  1  0  0  0
M  END
> <s_m_entry_id>
41184

> <s_m_entry_name>
dock_pv.301

> <s_m_Source_Path>
/home/csk/Desktop/cluster/DUD-E-result/tysy

> <s_m_Source_File>
dock_pv.maegz

> <i_m_Source_File_Index>
301

> <chembl_id>
CHEMBL75592

> <chembl_pref_name>
None

> <i_lp_mmshare_version>
53161

> <r_lp_tautomer_probability>
1

> <s_lp_Force_Field>
OPLS_2005

> <r_lp_Energy>
13.261515

> <b_lp_Chiralities_Consistent>
1

> <s_lp_Variant>
CHEMBL1952_lig46-1

> <s_i_glide_gridfile>
glide-grid_1syn

> <i_i_glide_lignum>
64

> <i_i_glide_rotatable_bonds>
1

> <r_i_docking_score>
-7.68768039258523

> <r_i_glide_ligand_efficiency>
-0.480480024536577

> <r_i_glide_ligand_efficiency_sa>
-1.21073379281632

> <r_i_glide_ligand_efficiency_ln>
-2.03777325295641

> <r_i_glide_gscore>
-7.68768039258523

> <r_i_glide_lipo>
-2.71115556469948

> <r_i_glide_hbond>
-0.192891964979828

> <r_i_glide_metal>
0

> <r_i_glide_rewards>
-2.45738572092026

> <r_i_glide_evdw>
-33.5084381103516

> <r_i_glide_ecoul>
-4.01630926132202

> <r_i_glide_erotb>
0

> <r_i_glide_esite>
-0.0483788472697729

> <r_i_glide_emodel>
-55.2969499408136

> <r_i_glide_energy>
-37.5247473716736

> <r_i_glide_einternal>
0.909871220588684

> <i_i_glide_confnum>
1

> <i_i_glide_posenum>
156

> <r_i_glide_eff_state_penalty>
0

> <s_user_duplicate_titles>
CHEMBL1952_lig46

> <i_f3d_flags>
0

> <s_m_subgroup_title>
dock_pv

> <s_m_subgroupid>
dock_pv

> <b_m_subgroup_collapsed>
1

$$$$
CHEMBL1952_lig331 
                    3D
 Schrodinger Suite 2021-1.
 53 56  0  0  1  0            999 V2000
   13.7602   18.3659   32.2068 N   0  0  0  0  0  0
   13.2578   18.0508   30.9560 C   0  0  0  0  0  0
   13.7655   17.0861   30.2654 N   0  0  0  0  0  0
   14.8051   17.7795   32.8743 C   0  0  0  0  0  0
   15.3897   16.7019   32.0707 C   0  0  0  0  0  0
   14.8204   16.4309   30.8290 C   0  0  0  0  0  0
   15.5181   15.4118   30.2467 N   0  0  0  0  0  0
   16.5175   15.0290   31.1070 C   0  0  0  0  0  0
   16.4734   15.8150   32.2623 C   0  0  0  0  0  0
   15.1517   18.1762   33.9845 O   0  0  0  0  0  0
   12.1932   18.8145   30.4376 N   0  0  0  0  0  0
   17.4216   15.7363   33.4430 C   0  0  0  0  0  0
   17.0421   14.6071   34.3853 C   0  0  0  0  0  0
   17.7892   13.4289   34.3984 C   0  0  0  0  0  0
   17.3817   12.3620   35.1912 C   0  0  0  0  0  0
   16.2240   12.4467   35.9808 C   0  0  0  0  0  0
   15.5075   13.6592   35.9907 C   0  0  0  0  0  0
   15.9151   14.7282   35.1962 C   0  0  0  0  0  0
   15.7908   11.2423   36.7899 C   0  0  0  0  0  0
   16.4893   10.2277   36.7907 O   0  0  0  0  0  0
   14.6439   11.3698   37.5020 N   0  0  0  0  0  0
   14.0478   10.4970   38.4446 C   0  0  0  0  0  0
   14.4507    9.1536   38.5978 C   0  0  0  0  0  0
   13.8569    8.3049   39.5405 C   0  0  0  0  0  0
   12.8145    8.8068   40.3275 C   0  0  0  0  0  0
   12.3892   10.1220   40.1767 C   0  0  0  0  0  0
   12.9987   10.9857   39.2572 C   0  0  0  0  0  0
   12.4749   12.4313   39.1804 C   0  0  0  0  0  0
   12.7359   13.2349   40.4670 C   0  0  0  0  0  0
   13.6492   14.2277   40.2795 O   0  0  0  0  0  0
   12.1933   12.9878   41.5414 O   0  0  0  0  0  0
   14.3493    6.8855   39.7024 C   0  0  0  0  0  0
   13.5531    6.0840   40.4609 O   0  0  0  0  0  0
   15.3912    6.4777   39.1908 O   0  0  0  0  0  0
   13.3506   19.1433   32.7000 H   0  0  0  0  0  0
   15.3291   15.0190   29.3368 H   0  0  0  0  0  0
   17.1928   14.2303   30.8288 H   0  0  0  0  0  0
   11.7180   18.5036   29.6007 H   0  0  0  0  0  0
   11.5726   19.3218   31.0528 H   0  0  0  0  0  0
   17.4400   16.6750   33.9902 H   0  0  0  0  0  0
   18.4469   15.5970   33.0962 H   0  0  0  0  0  0
   18.6692   13.3220   33.7775 H   0  0  0  0  0  0
   17.9709   11.4563   35.1655 H   0  0  0  0  0  0
   14.6195   13.7932   36.5861 H   0  0  0  0  0  0
   15.3469   15.6483   35.1991 H   0  0  0  0  0  0
   14.1696   12.2477   37.3843 H   0  0  0  0  0  0
   15.2249    8.7321   37.9768 H   0  0  0  0  0  0
   12.3170    8.1861   41.0586 H   0  0  0  0  0  0
   11.5751   10.4781   40.7901 H   0  0  0  0  0  0
   11.3940   12.3974   39.0283 H   0  0  0  0  0  0
   12.8544   12.9706   38.3139 H   0  0  0  0  0  0
   13.9711   14.2842   39.3782 H   0  0  0  0  0  0
   13.9136    5.1983   40.4856 H   0  0  0  0  0  0
  1  2  1  0  0  0
  1  4  1  0  0  0
  1 35  1  0  0  0
  2  3  2  0  0  0
  2 11  1  0  0  0
  3  6  1  0  0  0
  4  5  1  0  0  0
  4 10  2  0  0  0
  5  6  2  0  0  0
  5  9  1  0  0  0
  6  7  1  0  0  0
  7  8  1  0  0  0
  7 36  1  0  0  0
  8  9  2  0  0  0
  8 37  1  0  0  0
  9 12  1  0  0  0
 11 38  1  0  0  0
 11 39  1  0  0  0
 12 13  1  0  0  0
 12 40  1  0  0  0
 12 41  1  0  0  0
 13 14  2  0  0  0
 13 18  1  0  0  0
 14 15  1  0  0  0
 14 42  1  0  0  0
 15 16  2  0  0  0
 15 43  1  0  0  0
 16 17  1  0  0  0
 16 19  1  0  0  0
 17 18  2  0  0  0
 17 44  1  0  0  0
 18 45  1  0  0  0
 19 20  2  0  0  0
 19 21  1  0  0  0
 21 22  1  0  0  0
 21 46  1  0  0  0
 22 23  2  0  0  0
 22 27  1  0  0  0
 23 24  1  0  0  0
 23 47  1  0  0  0
 24 25  2  0  0  0
 24 32  1  0  0  0
 25 26  1  0  0  0
 25 48  1  0  0  0
 26 27  2  0  0  0
 26 49  1  0  0  0
 27 28  1  0  0  0
 28 29  1  0  0  0
 28 50  1  0  0  0
 28 51  1  0  0  0
 29 30  1  0  0  0
 29 31  2  0  0  0
 30 52  1  0  0  0
 32 33  1  0  0  0
 32 34  2  0  0  0
 33 53  1  0  0  0
M  END
> <s_m_entry_id>
41185

> <s_m_entry_name>
dock_pv.302

> <s_m_Source_Path>
/home/csk/Desktop/cluster/DUD-E-result/tysy

> <s_m_Source_File>
dock_pv.maegz

> <i_m_Source_File_Index>
302

> <chembl_id>
CHEMBL4451239

> <chembl_pref_name>
None

> <i_lp_mmshare_version>
53161

> <r_lp_tautomer_probability>
1

> <s_lp_Force_Field>
OPLS_2005

> <r_lp_Energy>
36.255857

> <b_lp_Chiralities_Consistent>
1

> <s_lp_Variant>
CHEMBL1952_lig331 -1

> <s_i_glide_gridfile>
glide-grid_1syn

> <i_i_glide_lignum>
606

> <i_i_glide_rotatable_bonds>
10

> <r_i_docking_score>
-7.68758171110356

> <r_i_glide_ligand_efficiency>
-0.226105344444222

> <r_i_glide_ligand_efficiency_sa>
-0.732493541332401

> <r_i_glide_ligand_efficiency_ln>
-1.69840242934592

> <r_i_glide_gscore>
-7.68758171110356

> <r_i_glide_lipo>
-2.70964693174992

> <r_i_glide_hbond>
-0.21758252713877

> <r_i_glide_metal>
0

> <r_i_glide_rewards>
-1.26893964272745

> <r_i_glide_evdw>
-55.298038482666

> <r_i_glide_ecoul>
-9.45800304412842

> <r_i_glide_erotb>
0.756588983501787

> <r_i_glide_esite>
-0.0643992122366394

> <r_i_glide_emodel>
-94.5931568898455

> <r_i_glide_energy>
-64.7560415267944

> <r_i_glide_einternal>
2.85575103759766

> <i_i_glide_confnum>
5

> <i_i_glide_posenum>
397

> <r_i_glide_eff_state_penalty>
0

> <s_user_duplicate_titles>
CHEMBL1952_lig331 

> <i_f3d_flags>
0

> <s_m_subgroup_title>
dock_pv

> <s_m_subgroupid>
dock_pv

> <b_m_subgroup_collapsed>
1

$$$$
CHEMBL1952_lig31
                    3D
 Schrodinger Suite 2021-1.
 30 32  0  0  1  0            999 V2000
   15.7972   15.9421   31.6957 C   0  0  0  0  0  0
   16.4363   16.2445   33.0045 C   0  0  0  0  0  0
   17.3619   15.2999   33.4805 N   0  0  0  0  0  0
   16.2658   14.8716   30.9893 C   0  0  0  0  0  0
   17.2999   14.1095   31.4850 N   0  0  0  0  0  0
   17.7935   14.3365   32.7515 C   0  0  0  0  0  0
   14.7357   16.8098   31.0684 C   0  0  0  0  0  0
   16.1759   17.2993   33.5773 O   0  0  0  0  0  0
   15.7750   14.5371   29.5858 C   0  0  0  0  0  0
   14.5384   16.7428   29.6707 C   0  0  0  0  0  0
   18.7768   13.4302   33.2265 N   0  0  0  0  0  0
   15.4436   15.8406   28.8375 C   0  0  0  0  0  0
   13.8863   17.6419   31.8189 C   0  0  0  0  0  0
   13.5401   17.5175   29.0705 C   0  0  0  0  0  0
   19.3865   13.5793   34.5429 C   0  0  0  0  0  0
   12.9058   18.4171   31.2055 C   0  0  0  0  0  0
   12.7299   18.3559   29.8297 C   0  0  0  0  0  0
   17.6685   13.3395   30.9474 H   0  0  0  0  0  0
   14.9461   13.8291   29.5916 H   0  0  0  0  0  0
   16.5906   14.1003   29.0143 H   0  0  0  0  0  0
   19.2960   12.8670   32.5566 H   0  0  0  0  0  0
   16.3738   16.3803   28.6475 H   0  0  0  0  0  0
   14.9916   15.6065   27.8725 H   0  0  0  0  0  0
   13.9558   17.6981   32.8921 H   0  0  0  0  0  0
   13.3943   17.4745   28.0004 H   0  0  0  0  0  0
   20.0541   12.7403   34.7481 H   0  0  0  0  0  0
   19.9649   14.5053   34.6000 H   0  0  0  0  0  0
   18.6174   13.6026   35.3198 H   0  0  0  0  0  0
   12.2726   19.0583   31.8021 H   0  0  0  0  0  0
   11.9617   18.9505   29.3571 H   0  0  0  0  0  0
  1  2  1  0  0  0
  1  7  1  0  0  0
  1  4  2  0  0  0
  2  3  1  0  0  0
  2  8  2  0  0  0
  3  6  2  0  0  0
  4  5  1  0  0  0
  4  9  1  0  0  0
  5 18  1  0  0  0
  5  6  1  0  0  0
  6 11  1  0  0  0
  7 10  2  0  0  0
  7 13  1  0  0  0
  9 12  1  0  0  0
  9 19  1  0  0  0
  9 20  1  0  0  0
 10 12  1  0  0  0
 10 14  1  0  0  0
 11 15  1  0  0  0
 11 21  1  0  0  0
 12 22  1  0  0  0
 12 23  1  0  0  0
 13 16  2  0  0  0
 13 24  1  0  0  0
 14 17  2  0  0  0
 14 25  1  0  0  0
 15 26  1  0  0  0
 15 27  1  0  0  0
 15 28  1  0  0  0
 16 17  1  0  0  0
 16 29  1  0  0  0
 17 30  1  0  0  0
M  END
> <s_m_entry_id>
41186

> <s_m_entry_name>
dock_pv.303

> <s_m_Source_Path>
/home/csk/Desktop/cluster/DUD-E-result/tysy

> <s_m_Source_File>
dock_pv.maegz

> <i_m_Source_File_Index>
303

> <chembl_id>
CHEMBL305610

> <chembl_pref_name>
None

> <i_lp_mmshare_version>
53161

> <r_lp_tautomer_probability>
0.108277240005817

> <s_lp_Force_Field>
OPLS_2005

> <r_lp_Energy>
22.497444

> <b_lp_Chiralities_Consistent>
1

> <s_lp_Variant>
CHEMBL1952_lig31-2

> <s_i_glide_gridfile>
glide-grid_1syn

> <i_i_glide_lignum>
39

> <i_i_glide_rotatable_bonds>
1

> <r_i_docking_score>
-7.67973036174962

> <r_i_glide_ligand_efficiency>
-0.451748844808801

> <r_i_glide_ligand_efficiency_sa>
-1.161573487161

> <r_i_glide_ligand_efficiency_ln>
-2.0034706321937

> <r_i_glide_gscore>
-7.67973036174962

> <r_i_glide_lipo>
-2.87327325498984

> <r_i_glide_hbond>
-0.16

> <r_i_glide_metal>
0

> <r_i_glide_rewards>
-2.08789972854652

> <r_i_glide_evdw>
-33.6423454284668

> <r_i_glide_ecoul>
-5.20977258682251

> <r_i_glide_erotb>
0

> <r_i_glide_esite>
-0.0949742187665435

> <r_i_glide_emodel>
-58.3307489876387

> <r_i_glide_energy>
-38.8521180152893

> <r_i_glide_einternal>
0.0650655701756477

> <i_i_glide_confnum>
1

> <i_i_glide_posenum>
94

> <r_i_glide_eff_state_penalty>
0

> <s_user_duplicate_titles>
CHEMBL1952_lig31,CHEMBL1952_lig31,CHEMBL1952_lig31

> <i_f3d_flags>
0

> <s_m_subgroup_title>
dock_pv

> <s_m_subgroupid>
dock_pv

> <b_m_subgroup_collapsed>
1

$$$$
CHEMBL1952_lig134
                    3D
 Schrodinger Suite 2021-1.
 34 36  0  0  1  0            999 V2000
   12.8683   19.0115   31.3634 N   0  0  0  0  0  0
   12.9645   18.6649   30.0616 C   0  0  0  0  0  0
   13.7314   17.6938   29.5182 N   0  0  0  0  0  0
   13.6067   18.3162   32.2630 C   0  0  0  0  0  0
   13.6308   18.6280   33.5920 O   0  0  0  0  0  0
   15.2560   16.2286   32.4411 C   0  0  0  0  0  0
   14.4113   17.2343   31.8331 C   0  0  0  0  0  0
   14.4217   17.0136   30.4341 C   0  0  0  0  0  0
   15.2763   15.9738   30.1933 N   0  0  0  0  0  0
   15.7910   15.4809   31.3695 C   0  0  0  0  0  0
   12.1920   19.3914   29.1802 N   0  0  0  0  0  0
   16.7170   14.2808   31.2542 C   0  0  0  0  0  0
   18.1251   14.6535   30.7897 C   0  0  0  0  0  0
   15.4231   16.0329   34.2034 S   0  0  0  0  0  0
   16.8398   15.0034   34.4104 C   0  0  0  0  0  0
   18.1021   15.4324   33.9979 C   0  0  0  0  0  0
   19.1803   14.5477   34.0317 C   0  0  0  0  0  0
   18.9956   13.2433   34.4898 C   0  0  0  0  0  0
   17.7525   12.8375   34.9718 C   0  0  0  0  0  0
   16.6819   13.7305   34.9608 C   0  0  0  0  0  0
   17.5039   11.0529   35.5890 Br  0  0  0  0  0  0
   13.1828   19.4591   33.8068 H   0  0  0  0  0  0
   15.5003   15.5730   29.2953 H   0  0  0  0  0  0
   12.1277   19.0191   28.2476 H   0  0  0  0  0  0
   11.3674   19.8284   29.5784 H   0  0  0  0  0  0
   16.7860   13.7243   32.1824 H   0  0  0  0  0  0
   16.3119   13.5562   30.5456 H   0  0  0  0  0  0
   18.7931   13.7950   30.8068 H   0  0  0  0  0  0
   18.1055   15.0375   29.7712 H   0  0  0  0  0  0
   18.5757   15.4279   31.4044 H   0  0  0  0  0  0
   18.2333   16.4260   33.5960 H   0  0  0  0  0  0
   20.1488   14.8550   33.6653 H   0  0  0  0  0  0
   19.8199   12.5467   34.4717 H   0  0  0  0  0  0
   15.7109   13.4054   35.3024 H   0  0  0  0  0  0
  1  2  2  0  0  0
  1  4  1  0  0  0
  2 11  1  0  0  0
  2  3  1  0  0  0
  3  8  2  0  0  0
  4  5  1  0  0  0
  4  7  2  0  0  0
  5 22  1  0  0  0
  6  7  1  0  0  0
  6 10  2  0  0  0
  6 14  1  0  0  0
  7  8  1  0  0  0
  8  9  1  0  0  0
  9 10  1  0  0  0
  9 23  1  0  0  0
 10 12  1  0  0  0
 11 24  1  0  0  0
 11 25  1  0  0  0
 12 13  1  0  0  0
 12 26  1  0  0  0
 12 27  1  0  0  0
 13 28  1  0  0  0
 13 29  1  0  0  0
 13 30  1  0  0  0
 14 15  1  0  0  0
 15 16  2  0  0  0
 15 20  1  0  0  0
 16 17  1  0  0  0
 16 31  1  0  0  0
 17 18  2  0  0  0
 17 32  1  0  0  0
 18 19  1  0  0  0
 18 33  1  0  0  0
 19 20  2  0  0  0
 19 21  1  0  0  0
 20 34  1  0  0  0
M  END
> <s_m_entry_id>
41187

> <s_m_entry_name>
dock_pv.304

> <s_m_Source_Path>
/home/csk/Desktop/cluster/DUD-E-result/tysy

> <s_m_Source_File>
dock_pv.maegz

> <i_m_Source_File_Index>
304

> <chembl_id>
CHEMBL202176

> <chembl_pref_name>
None

> <i_lp_mmshare_version>
53161

> <r_lp_tautomer_probability>
1

> <s_lp_Force_Field>
OPLS_2005

> <r_lp_Energy>
2.4334

> <b_lp_Chiralities_Consistent>
1

> <s_lp_Variant>
CHEMBL1952_lig134-1

> <s_i_glide_gridfile>
glide-grid_1syn

> <i_i_glide_lignum>
311

> <i_i_glide_rotatable_bonds>
4

> <r_i_docking_score>
-7.67345801568865

> <r_i_glide_ligand_efficiency>
-0.36540276265184

> <r_i_glide_ligand_efficiency_sa>
-1.00811851497354

> <r_i_glide_ligand_efficiency_ln>
-1.89724698869711

> <r_i_glide_gscore>
-7.67345801568865

> <r_i_glide_lipo>
-2.81142336668967

> <r_i_glide_hbond>
-0.447903288445675

> <r_i_glide_metal>
0

> <r_i_glide_rewards>
-1.57969813223936

> <r_i_glide_evdw>
-42.6415252685547

> <r_i_glide_ecoul>
-6.23292779922485

> <r_i_glide_erotb>
0.288350779095535

> <r_i_glide_esite>
-0.0557685740980189

> <r_i_glide_emodel>
-69.1912093237236

> <r_i_glide_energy>
-48.8744530677795

> <r_i_glide_einternal>
4.64759063720703

> <i_i_glide_confnum>
3

> <i_i_glide_posenum>
90

> <r_i_glide_eff_state_penalty>
0

> <s_user_duplicate_titles>
CHEMBL1952_lig134

> <i_f3d_flags>
0

> <s_m_subgroup_title>
dock_pv

> <s_m_subgroupid>
dock_pv

> <b_m_subgroup_collapsed>
1

$$$$
CHEMBL1952_lig236
                    3D
 Schrodinger Suite 2021-1.
 59 61  0  0  1  0            999 V2000
   13.3898   18.1566   31.5434 N   0  0  0  0  0  0
   13.0462   17.6360   30.3256 C   0  0  0  0  0  0
   13.7002   16.6607   29.8082 N   0  0  0  0  0  0
   14.3986   17.7510   32.3494 C   0  0  0  0  0  0
   14.6228   18.2893   33.4291 O   0  0  0  0  0  0
   15.1833   16.6081   31.7550 C   0  0  0  0  0  0
   14.7982   16.1233   30.5018 C   0  0  0  0  0  0
   15.5170   15.0842   29.9162 C   0  0  0  0  0  0
   16.6128   14.5324   30.5870 C   0  0  0  0  0  0
   16.9977   15.0090   31.8476 C   0  0  0  0  0  0
   16.2734   16.0613   32.4288 C   0  0  0  0  0  0
   18.2191   14.3917   32.5445 C   0  0  0  0  0  0
   18.1991   14.6163   33.9946 N   0  0  0  0  0  0
   17.4181   13.7870   34.8157 C   0  0  0  0  0  0
   17.5707   12.4027   34.7917 C   0  0  0  0  0  0
   16.7372   11.5918   35.5585 C   0  0  0  0  0  0
   15.7042   12.1425   36.3362 C   0  0  0  0  0  0
   15.5872   13.5480   36.3915 C   0  0  0  0  0  0
   16.4511   14.3512   35.6475 C   0  0  0  0  0  0
   14.7514   11.2199   37.0643 C   0  0  0  0  0  0
   14.3061   11.4898   38.1810 O   0  0  0  0  0  0
   14.4134   10.1112   36.3862 N   0  0  0  0  0  0
   13.5187    9.0395   36.8261 C   0  0  1  0  0  0
   12.0521    9.5559   36.8597 C   0  0  0  0  0  0
   13.7233    7.8122   35.9101 C   0  0  0  0  0  0
   13.3270    6.6730   36.5467 O   0  0  0  0  0  0
   14.1951    7.8674   34.7913 O   0  0  0  0  0  0
   11.0177    8.5755   37.4502 C   0  0  0  0  0  0
    9.7067    9.2776   37.7988 C   0  0  0  0  0  0
    8.9698    9.5829   36.6932 O   0  0  0  0  0  0
    9.3664    9.5443   38.9487 O   0  0  0  0  0  0
   11.8723   18.2363   29.5930 C   0  0  0  0  0  0
   19.1817   15.4826   34.6251 C   0  0  0  0  0  0
   14.6177   14.1996   37.1570 N   0  0  0  0  0  0
   12.8695   18.9376   31.9077 H   0  0  0  0  0  0
   15.2241   14.7061   28.9482 H   0  0  0  0  0  0
   17.1615   13.7244   30.1250 H   0  0  0  0  0  0
   16.5634   16.4593   33.3913 H   0  0  0  0  0  0
   19.1161   14.8391   32.1125 H   0  0  0  0  0  0
   18.2779   13.3254   32.3192 H   0  0  0  0  0  0
   18.3354   11.9523   34.1745 H   0  0  0  0  0  0
   16.8900   10.5226   35.5075 H   0  0  0  0  0  0
   16.3375   15.4236   35.6749 H   0  0  0  0  0  0
   14.7981    9.9813   35.4620 H   0  0  0  0  0  0
   13.8321    8.7705   37.8368 H   0  0  0  0  0  0
   11.7482    9.8390   35.8494 H   0  0  0  0  0  0
   12.0074   10.4839   37.4329 H   0  0  0  0  0  0
   12.9693    6.8305   37.4210 H   0  0  0  0  0  0
   11.4038    8.1444   38.3737 H   0  0  0  0  0  0
   10.8205    7.7457   36.7702 H   0  0  0  0  0  0
    9.3919    9.3226   35.8725 H   0  0  0  0  0  0
   12.1902   18.6684   28.6451 H   0  0  0  0  0  0
   11.1149   17.4807   29.3879 H   0  0  0  0  0  0
   11.3929   19.0261   30.1689 H   0  0  0  0  0  0
   18.8204   15.8277   35.5905 H   0  0  0  0  0  0
   20.1161   14.9437   34.7887 H   0  0  0  0  0  0
   19.3830   16.3596   34.0100 H   0  0  0  0  0  0
   14.7590   15.1883   37.3260 H   0  0  0  0  0  0
   14.1170   13.6342   37.8291 H   0  0  0  0  0  0
  1  2  1  0  0  0
  1  4  1  0  0  0
  1 35  1  0  0  0
  2 32  1  0  0  0
  2  3  2  0  0  0
  3  7  1  0  0  0
  4  6  1  0  0  0
  4  5  2  0  0  0
  6 11  1  0  0  0
  6  7  2  0  0  0
  7  8  1  0  0  0
  8  9  2  0  0  0
  8 36  1  0  0  0
  9 10  1  0  0  0
  9 37  1  0  0  0
 10 11  2  0  0  0
 10 12  1  0  0  0
 11 38  1  0  0  0
 12 13  1  0  0  0
 12 39  1  0  0  0
 12 40  1  0  0  0
 13 14  1  0  0  0
 13 33  1  0  0  0
 14 19  1  0  0  0
 14 15  2  0  0  0
 15 16  1  0  0  0
 15 41  1  0  0  0
 16 17  2  0  0  0
 16 42  1  0  0  0
 17 18  1  0  0  0
 17 20  1  0  0  0
 18 19  2  0  0  0
 18 34  1  0  0  0
 19 43  1  0  0  0
 20 21  2  0  0  0
 20 22  1  0  0  0
 22 23  1  0  0  0
 22 44  1  0  0  0
 23 24  1  0  0  0
 23 25  1  0  0  0
 23 45  1  0  0  0
 24 28  1  0  0  0
 24 46  1  0  0  0
 24 47  1  0  0  0
 25 26  1  0  0  0
 25 27  2  0  0  0
 26 48  1  0  0  0
 28 29  1  0  0  0
 28 49  1  0  0  0
 28 50  1  0  0  0
 29 30  1  0  0  0
 29 31  2  0  0  0
 30 51  1  0  0  0
 32 52  1  0  0  0
 32 53  1  0  0  0
 32 54  1  0  0  0
 33 55  1  0  0  0
 33 56  1  0  0  0
 33 57  1  0  0  0
 34 58  1  0  0  0
 34 59  1  0  0  0
M  END
> <s_m_entry_id>
41189

> <s_m_entry_name>
dock_pv.306

> <s_m_Source_Path>
/home/csk/Desktop/cluster/DUD-E-result/tysy

> <s_m_Source_File>
dock_pv.maegz

> <i_m_Source_File_Index>
306

> <chembl_id>
CHEMBL105597

> <chembl_pref_name>
None

> <i_lp_mmshare_version>
53161

> <r_lp_tautomer_probability>
0.883938

> <s_lp_Force_Field>
OPLS_2005

> <r_lp_Energy>
28.926022

> <b_lp_Chiralities_Consistent>
1

> <s_lp_Variant>
CHEMBL1952_lig236-1

> <s_i_glide_gridfile>
glide-grid_1syn

> <i_i_glide_lignum>
468

> <i_i_glide_rotatable_bonds>
12

> <r_i_docking_score>
-7.65846559615382

> <r_i_glide_ligand_efficiency>
-0.225248988122171

> <r_i_glide_ligand_efficiency_sa>
-0.729719279288646

> <r_i_glide_ligand_efficiency_ln>
-1.69196986287416

> <r_i_glide_gscore>
-7.65846559615382

> <r_i_glide_lipo>
-3.72062513408334

> <r_i_glide_hbond>
-0.591805116502716

> <r_i_glide_metal>
0

> <r_i_glide_rewards>
-0.208080038187814

> <r_i_glide_evdw>
-55.4175643920898

> <r_i_glide_ecoul>
-8.60420036315918

> <r_i_glide_erotb>
0.923552966698422

> <r_i_glide_esite>
0

> <r_i_glide_emodel>
-79.097181849649

> <r_i_glide_energy>
-64.021764755249

> <r_i_glide_einternal>
25.7815341949463

> <i_i_glide_confnum>
135

> <i_i_glide_posenum>
260

> <r_i_glide_eff_state_penalty>
0

> <s_user_duplicate_titles>
CHEMBL1952_lig236,CHEMBL1952_lig236,171250

> <i_f3d_flags>
0

> <s_m_subgroup_title>
dock_pv

> <s_m_subgroupid>
dock_pv

> <b_m_subgroup_collapsed>
1

$$$$
CHEMBL1952_lig413
                    3D
 Schrodinger Suite 2021-1.
 55 59  0  0  1  0            999 V2000
   14.8727    9.4112   36.3911 S   0  0  0  0  0  0
   14.7397   15.6697   29.5710 N   0  0  0  0  0  0
   13.8217   16.6120   29.8955 C   0  0  0  0  0  0
   15.6215   15.4280   30.6216 C   0  0  0  0  0  0
   15.2559   16.2388   31.6637 C   0  0  0  0  0  0
   14.1833   17.0069   31.2889 C   0  0  0  0  0  0
   15.8952   16.2923   32.9150 C   0  0  0  0  0  0
   13.1104    9.5949   36.4998 N   0  0  0  0  0  0
   17.0145   15.4008   33.1007 C   0  0  0  0  0  0
   17.7608   15.3436   34.3036 N   0  0  0  0  0  0
   15.5037   11.0558   36.0972 C   0  0  0  0  0  0
   16.7115   14.5821   30.7859 C   0  0  0  0  0  0
   17.3932   14.5778   32.0115 C   0  0  0  0  0  0
   15.1910    8.6277   35.1921 O   0  0  0  0  0  0
   15.3920    9.0204   37.7079 O   0  0  0  0  0  0
   12.9088   17.0287   29.1910 O   0  0  0  0  0  0
   17.0847   15.0279   35.5693 C   0  0  0  0  0  0
   10.2584    9.5259   36.7467 N   0  0  0  0  0  0
   16.7947   11.2082   35.5910 C   0  0  0  0  0  0
   14.7303   12.1754   36.4074 C   0  0  0  0  0  0
   12.4820    9.4272   37.8296 C   0  0  0  0  0  0
   12.2843    9.0123   35.4201 C   0  0  0  0  0  0
   16.5354   13.6099   35.6860 C   0  0  0  0  0  0
   13.6615   17.9371   32.1834 C   0  0  0  0  0  0
   15.3559   17.2656   33.8139 C   0  0  0  0  0  0
   17.3089   12.4845   35.3818 C   0  0  0  0  0  0
   15.2471   13.4476   36.1999 C   0  0  0  0  0  0
   19.2089   15.1466   34.2266 C   0  0  0  0  0  0
   10.8895    9.6770   35.4273 C   0  0  0  0  0  0
   11.0858   10.0919   37.8212 C   0  0  0  0  0  0
   14.2592   18.0629   33.4436 C   0  0  0  0  0  0
   14.7629   15.2051   28.6761 H   0  0  0  0  0  0
   17.0310   13.9224   29.9922 H   0  0  0  0  0  0
   18.2296   13.9004   32.1124 H   0  0  0  0  0  0
   17.7879   15.1755   36.3907 H   0  0  0  0  0  0
   16.2568   15.7075   35.7573 H   0  0  0  0  0  0
    9.3459    9.9627   36.7390 H   0  0  0  0  0  0
   17.4011   10.3430   35.3625 H   0  0  0  0  0  0
   13.7363   12.0769   36.8166 H   0  0  0  0  0  0
   12.3559    8.3660   38.0504 H   0  0  0  0  0  0
   13.1068    9.9116   38.5804 H   0  0  0  0  0  0
   12.7618    9.1990   34.4587 H   0  0  0  0  0  0
   12.1572    7.9423   35.5909 H   0  0  0  0  0  0
   12.8218   18.5641   31.9176 H   0  0  0  0  0  0
   15.7919   17.4205   34.7821 H   0  0  0  0  0  0
   18.3150   12.5834   35.0082 H   0  0  0  0  0  0
   14.6476   14.3088   36.4579 H   0  0  0  0  0  0
   19.6168   15.6453   33.3496 H   0  0  0  0  0  0
   19.7065   15.5690   35.1001 H   0  0  0  0  0  0
   19.4790   14.0955   34.1404 H   0  0  0  0  0  0
   10.9898   10.7544   35.2814 H   0  0  0  0  0  0
   10.2414    9.2945   34.6378 H   0  0  0  0  0  0
   11.1785   11.1524   37.5774 H   0  0  0  0  0  0
   10.5793   10.0142   38.7837 H   0  0  0  0  0  0
   13.8713   18.7946   34.1383 H   0  0  0  0  0  0
  1  8  1  0  0  0
  1 11  1  0  0  0
  1 14  2  0  0  0
  1 15  2  0  0  0
  2  4  1  0  0  0
  2  3  1  0  0  0
  2 32  1  0  0  0
  3  6  1  0  0  0
  3 16  2  0  0  0
  4 12  2  0  0  0
  4  5  1  0  0  0
  5  7  1  0  0  0
  5  6  2  0  0  0
  6 24  1  0  0  0
  7  9  1  0  0  0
  7 25  2  0  0  0
  8 21  1  0  0  0
  8 22  1  0  0  0
  9 10  1  0  0  0
  9 13  2  0  0  0
 10 17  1  0  0  0
 10 28  1  0  0  0
 11 19  1  0  0  0
 11 20  2  0  0  0
 12 13  1  0  0  0
 12 33  1  0  0  0
 13 34  1  0  0  0
 17 23  1  0  0  0
 17 35  1  0  0  0
 17 36  1  0  0  0
 18 29  1  0  0  0
 18 30  1  0  0  0
 18 37  1  0  0  0
 19 26  2  0  0  0
 19 38  1  0  0  0
 20 27  1  0  0  0
 20 39  1  0  0  0
 21 30  1  0  0  0
 21 40  1  0  0  0
 21 41  1  0  0  0
 22 29  1  0  0  0
 22 42  1  0  0  0
 22 43  1  0  0  0
 23 27  2  0  0  0
 23 26  1  0  0  0
 24 31  2  0  0  0
 24 44  1  0  0  0
 25 31  1  0  0  0
 25 45  1  0  0  0
 26 46  1  0  0  0
 27 47  1  0  0  0
 28 48  1  0  0  0
 28 49  1  0  0  0
 28 50  1  0  0  0
 29 51  1  0  0  0
 29 52  1  0  0  0
 30 53  1  0  0  0
 30 54  1  0  0  0
 31 55  1  0  0  0
M  END
> <s_m_entry_id>
41190

> <s_m_entry_name>
dock_pv.307

> <s_m_Source_Path>
/home/csk/Desktop/cluster/DUD-E-result/tysy

> <s_m_Source_File>
dock_pv.maegz

> <i_m_Source_File_Index>
307

> <chembl_id>
CHEMBL57002

> <chembl_pref_name>
None

> <i_lp_mmshare_version>
53161

> <r_lp_tautomer_probability>
1

> <s_lp_Force_Field>
OPLS_2005

> <r_lp_Energy>
58.566726

> <b_lp_Chiralities_Consistent>
1

> <s_lp_Variant>
CHEMBL1952_lig413-1

> <s_i_glide_gridfile>
glide-grid_1syn

> <i_i_glide_lignum>
807

> <i_i_glide_rotatable_bonds>
5

> <r_i_docking_score>
-7.65743702254179

> <r_i_glide_ligand_efficiency>
-0.247014097501348

> <r_i_glide_ligand_efficiency_sa>
-0.775965305870438

> <r_i_glide_ligand_efficiency_ln>
-1.72698672084484

> <r_i_glide_gscore>
-7.65743702254179

> <r_i_glide_lipo>
-4.3017769645197

> <r_i_glide_hbond>
-0.0910879044841008

> <r_i_glide_metal>
0

> <r_i_glide_rewards>
-0.34912178358043

> <r_i_glide_evdw>
-50.607105255127

> <r_i_glide_ecoul>
-5.8687949180603

> <r_i_glide_erotb>
0.523036750298666

> <r_i_glide_esite>
-0.0278126197908365

> <r_i_glide_emodel>
-77.1387680339408

> <r_i_glide_energy>
-56.4759001731873

> <r_i_glide_einternal>
6.86952686309814

> <i_i_glide_confnum>
5

> <i_i_glide_posenum>
310

> <r_i_glide_eff_state_penalty>
0

> <s_user_duplicate_titles>
CHEMBL1952_lig413,89850

> <i_f3d_flags>
0

> <s_m_subgroup_title>
dock_pv

> <s_m_subgroupid>
dock_pv

> <b_m_subgroup_collapsed>
1

$$$$
CHEMBL1952_lig101
                    3D
 Schrodinger Suite 2021-1.
 59 61  0  0  1  0            999 V2000
   14.1978   17.9912   32.5421 C   0  0  0  0  0  0
   15.1704   16.8750   32.2567 C   0  0  0  0  0  0
   13.3928   18.2594   31.4880 N   0  0  0  0  0  0
   14.2433   16.7150   29.9959 N   0  0  0  0  0  0
   15.1483   16.2919   30.9856 C   0  0  0  0  0  0
   13.4217   17.6665   30.2567 C   0  0  0  0  0  0
   13.3884   12.3911   38.0050 C   0  0  0  0  0  0
   12.7221   13.3929   38.6081 N   0  0  0  0  0  0
   10.4270   12.4666   39.1176 C   0  0  0  0  0  0
   17.7579   13.6456   34.4533 N   0  0  0  0  0  0
   18.9921   11.5105   34.8050 C   0  0  0  0  0  0
   11.6731   13.2326   39.6307 C   0  0  1  0  0  0
   19.2584   10.6152   35.5894 C   0  0  0  0  0  0
   16.0862   16.4597   33.2223 C   0  0  0  0  0  0
   14.4563   12.7763   37.0090 C   0  0  0  0  0  0
   13.7882   13.0902   42.9541 C   0  0  0  0  0  0
   16.6115   13.3690   35.2633 C   0  0  0  0  0  0
   14.1333   18.6253   33.5882 O   0  0  0  0  0  0
   18.0126   15.0079   33.9613 C   0  0  0  0  0  0
   13.1646   11.2049   38.2535 O   0  0  0  0  0  0
   16.9908   15.4401   32.9178 C   0  0  0  0  0  0
    9.9176   11.5324   39.7003 O   0  0  0  0  0  0
   16.0576   15.2806   30.6790 C   0  0  0  0  0  0
   13.3834   13.8282   43.8467 O   0  0  0  0  0  0
   15.0422   11.7756   36.2354 C   0  0  0  0  0  0
   14.9149   14.0941   36.8532 C   0  0  0  0  0  0
   16.0896   12.0717   35.3803 C   0  0  0  0  0  0
   15.9731   14.3816   35.9924 C   0  0  0  0  0  0
   12.2563   12.6473   40.9503 C   0  0  0  0  0  0
   13.5324   13.3475   41.4692 C   0  0  0  0  0  0
   18.6294   12.6007   33.8811 C   0  0  0  0  0  0
    9.9779   13.0169   37.9512 O   0  0  0  0  0  0
   16.9783   14.8554   31.6429 C   0  0  0  0  0  0
   14.4785   11.9425   43.1907 O   0  0  0  0  0  0
   12.4414   18.1429   29.2121 C   0  0  0  0  0  0
   12.9685   14.3387   38.3658 H   0  0  0  0  0  0
   11.3150   14.2281   39.8697 H   0  0  0  0  0  0
   19.4602    9.8282   36.2757 H   0  0  0  0  0  0
   16.0947   16.9266   34.1979 H   0  0  0  0  0  0
   12.7503   19.0167   31.6522 H   0  0  0  0  0  0
   18.9953   15.0711   33.4890 H   0  0  0  0  0  0
   18.0656   15.7161   34.7884 H   0  0  0  0  0  0
   16.0468   14.8277   29.6991 H   0  0  0  0  0  0
   14.7033   10.7512   36.2952 H   0  0  0  0  0  0
   14.5036   14.9108   37.4267 H   0  0  0  0  0  0
   16.4676   11.2543   34.7922 H   0  0  0  0  0  0
   16.3156   15.4041   35.9549 H   0  0  0  0  0  0
   11.4790   12.6980   41.7068 H   0  0  0  0  0  0
   12.4817   11.5878   40.8174 H   0  0  0  0  0  0
   14.3998   13.0338   40.8908 H   0  0  0  0  0  0
   13.4414   14.4246   41.3344 H   0  0  0  0  0  0
   18.1760   12.1540   32.9973 H   0  0  0  0  0  0
   19.5800   13.0287   33.5573 H   0  0  0  0  0  0
   10.5541   13.7087   37.6207 H   0  0  0  0  0  0
   17.6838   14.0740   31.3972 H   0  0  0  0  0  0
   14.6522   11.8284   44.1383 H   0  0  0  0  0  0
   12.8933   18.1297   28.2177 H   0  0  0  0  0  0
   11.5610   17.5008   29.1929 H   0  0  0  0  0  0
   12.1002   19.1623   29.4046 H   0  0  0  0  0  0
  1 18  2  0  0  0
  1  2  1  0  0  0
  1  3  1  0  0  0
  2 14  1  0  0  0
  2  5  2  0  0  0
  3  6  1  0  0  0
  3 40  1  0  0  0
  4  5  1  0  0  0
  4  6  2  0  0  0
  5 23  1  0  0  0
  6 35  1  0  0  0
  7 15  1  0  0  0
  7  8  1  0  0  0
  7 20  2  0  0  0
  8 12  1  0  0  0
  8 36  1  0  0  0
  9 12  1  0  0  0
  9 22  2  0  0  0
  9 32  1  0  0  0
 10 19  1  0  0  0
 10 17  1  0  0  0
 10 31  1  0  0  0
 11 31  1  0  0  0
 11 13  3  0  0  0
 12 29  1  0  0  0
 12 37  1  0  0  0
 13 38  1  0  0  0
 14 39  1  0  0  0
 14 21  2  0  0  0
 15 26  1  0  0  0
 15 25  2  0  0  0
 16 30  1  0  0  0
 16 24  2  0  0  0
 16 34  1  0  0  0
 17 27  2  0  0  0
 17 28  1  0  0  0
 19 41  1  0  0  0
 19 42  1  0  0  0
 19 21  1  0  0  0
 21 33  1  0  0  0
 23 33  2  0  0  0
 23 43  1  0  0  0
 25 27  1  0  0  0
 25 44  1  0  0  0
 26 28  2  0  0  0
 26 45  1  0  0  0
 27 46  1  0  0  0
 28 47  1  0  0  0
 29 30  1  0  0  0
 29 48  1  0  0  0
 29 49  1  0  0  0
 30 50  1  0  0  0
 30 51  1  0  0  0
 31 52  1  0  0  0
 31 53  1  0  0  0
 32 54  1  0  0  0
 33 55  1  0  0  0
 34 56  1  0  0  0
 35 57  1  0  0  0
 35 58  1  0  0  0
 35 59  1  0  0  0
M  END
> <s_m_entry_id>
41191

> <s_m_entry_name>
dock_pv.308

> <s_m_Source_Path>
/home/csk/Desktop/cluster/DUD-E-result/tysy

> <s_m_Source_File>
dock_pv.maegz

> <i_m_Source_File_Index>
308

> <chembl_id>
CHEMBL25889

> <chembl_pref_name>
None

> <i_lp_mmshare_version>
53161

> <r_lp_tautomer_probability>
0.883938

> <s_lp_Force_Field>
OPLS_2005

> <r_lp_Energy>
19.925504

> <b_lp_Chiralities_Consistent>
1

> <s_lp_Variant>
CHEMBL1952_lig101-1

> <s_i_glide_gridfile>
glide-grid_1syn

> <i_i_glide_lignum>
186

> <i_i_glide_rotatable_bonds>
14

> <r_i_docking_score>
-7.65511404239311

> <r_i_glide_ligand_efficiency>
-0.218717544068374

> <r_i_glide_ligand_efficiency_sa>
-0.715439589001369

> <r_i_glide_ligand_efficiency_ln>
-1.6804674284077

> <r_i_glide_gscore>
-7.65511404239311

> <r_i_glide_lipo>
-3.58494091648995

> <r_i_glide_hbond>
0

> <r_i_glide_metal>
0

> <r_i_glide_rewards>
-0.795433578092755

> <r_i_glide_evdw>
-59.1199188232422

> <r_i_glide_ecoul>
-9.16354179382324

> <r_i_glide_erotb>
1.07032658310607

> <r_i_glide_esite>
-0.0145389206808834

> <r_i_glide_emodel>
-98.4215852915636

> <r_i_glide_energy>
-68.2834606170654

> <r_i_glide_einternal>
5.82345962524414

> <i_i_glide_confnum>
4

> <i_i_glide_posenum>
317

> <r_i_glide_eff_state_penalty>
0

> <s_user_duplicate_titles>
CHEMBL1952_lig101,598,31146

> <i_f3d_flags>
0

> <s_m_subgroup_title>
dock_pv

> <s_m_subgroupid>
dock_pv

> <b_m_subgroup_collapsed>
1

$$$$
CHEMBL1952_lig401
                    3D
 Schrodinger Suite 2021-1.
 55 59  0  0  1  0            999 V2000
   13.7141   11.5594   38.0932 S   0  0  0  0  0  0
   13.8170   18.6272   33.0402 N   0  0  0  0  0  0
   13.0599   18.9745   31.9519 C   0  0  0  0  0  0
   17.1339   14.9163   33.1758 N   0  0  0  0  0  0
   16.1891   15.7608   32.5603 C   0  0  0  0  0  0
   12.2704   11.2416   37.1127 N   0  0  0  0  0  0
   14.6036   17.5618   32.6575 C   0  0  0  0  0  0
   13.2726   18.2284   30.9028 N   0  0  0  0  0  0
   15.5635   16.7799   33.3033 C   0  0  0  0  0  0
   14.2450   17.3527   31.3073 C   0  0  0  0  0  0
   15.8633   15.5622   31.1905 C   0  0  0  0  0  0
   14.8035   12.5031   37.0260 C   0  0  0  0  0  0
   14.8875   16.3535   30.5722 C   0  0  0  0  0  0
   14.3696   10.2728   38.3599 O   0  0  0  0  0  0
   13.3222   12.4408   39.2003 O   0  0  0  0  0  0
   17.4952   14.8337   34.5974 C   0  0  0  0  0  0
   12.1900   20.0135   32.0082 N   0  0  0  0  0  0
   10.4295   11.1882   34.9764 O   0  0  0  0  0  0
   15.8574   11.8752   36.3577 C   0  0  0  0  0  0
   14.5917   13.8724   36.8698 C   0  0  0  0  0  0
   11.4351   12.4296   36.7999 C   0  0  0  0  0  0
   12.5020   10.3669   35.9382 C   0  0  0  0  0  0
   16.5168   14.0041   35.4184 C   0  0  0  0  0  0
   17.9264   13.9457   32.4028 C   0  0  0  0  0  0
   15.4426   14.6198   36.0625 C   0  0  0  0  0  0
   16.7188   12.6283   35.5626 C   0  0  0  0  0  0
   16.5852   14.5038   30.3572 C   0  0  0  0  0  0
   11.1588    9.9971   35.2755 C   0  0  0  0  0  0
   10.1235   11.9779   36.1256 C   0  0  0  0  0  0
   17.9919   14.2903   30.9149 C   0  0  0  0  0  0
   13.7616   19.1262   33.9178 H   0  0  0  0  0  0
   15.8105   16.9677   34.3330 H   0  0  0  0  0  0
   14.6305   16.1989   29.5340 H   0  0  0  0  0  0
   18.4919   14.4114   34.7373 H   0  0  0  0  0  0
   17.5932   15.8276   35.0124 H   0  0  0  0  0  0
   11.5517   20.1996   31.2456 H   0  0  0  0  0  0
   12.1307   20.6015   32.8334 H   0  0  0  0  0  0
   16.0287   10.8139   36.4690 H   0  0  0  0  0  0
   13.7811   14.3641   37.3877 H   0  0  0  0  0  0
   11.2004   12.9771   37.7123 H   0  0  0  0  0  0
   11.9411   13.0328   36.0422 H   0  0  0  0  0  0
   13.0390   10.9484   35.1910 H   0  0  0  0  0  0
   13.0212    9.4550   36.2396 H   0  0  0  0  0  0
   17.2751   13.0700   32.3826 H   0  0  0  0  0  0
   18.8611   13.5960   32.8462 H   0  0  0  0  0  0
   15.2814   15.6830   35.9825 H   0  0  0  0  0  0
   17.5497   12.1453   35.0667 H   0  0  0  0  0  0
   16.0420   13.5616   30.3840 H   0  0  0  0  0  0
   16.6372   14.7966   29.3051 H   0  0  0  0  0  0
   11.3299    9.4425   34.3524 H   0  0  0  0  0  0
   10.5649    9.3541   35.9281 H   0  0  0  0  0  0
    9.5356   12.8413   35.8169 H   0  0  0  0  0  0
    9.5064   11.4012   36.8185 H   0  0  0  0  0  0
   18.5127   13.4914   30.3911 H   0  0  0  0  0  0
   18.5977   15.1877   30.7759 H   0  0  0  0  0  0
  1  6  1  0  0  0
  1 12  1  0  0  0
  1 14  2  0  0  0
  1 15  2  0  0  0
  2  7  1  0  0  0
  2  3  1  0  0  0
  2 31  1  0  0  0
  3 17  1  0  0  0
  3  8  2  0  0  0
  4 16  1  0  0  0
  4  5  1  0  0  0
  4 24  1  0  0  0
  5  9  2  0  0  0
  5 11  1  0  0  0
  6 21  1  0  0  0
  6 22  1  0  0  0
  7  9  1  0  0  0
  7 10  2  0  0  0
  8 10  1  0  0  0
  9 32  1  0  0  0
 10 13  1  0  0  0
 11 13  2  0  0  0
 11 27  1  0  0  0
 12 19  2  0  0  0
 12 20  1  0  0  0
 13 33  1  0  0  0
 16 23  1  0  0  0
 16 34  1  0  0  0
 16 35  1  0  0  0
 17 36  1  0  0  0
 17 37  1  0  0  0
 18 28  1  0  0  0
 18 29  1  0  0  0
 19 26  1  0  0  0
 19 38  1  0  0  0
 20 25  2  0  0  0
 20 39  1  0  0  0
 21 29  1  0  0  0
 21 40  1  0  0  0
 21 41  1  0  0  0
 22 28  1  0  0  0
 22 42  1  0  0  0
 22 43  1  0  0  0
 23 25  1  0  0  0
 23 26  2  0  0  0
 24 30  1  0  0  0
 24 44  1  0  0  0
 24 45  1  0  0  0
 25 46  1  0  0  0
 26 47  1  0  0  0
 27 30  1  0  0  0
 27 48  1  0  0  0
 27 49  1  0  0  0
 28 50  1  0  0  0
 28 51  1  0  0  0
 29 52  1  0  0  0
 29 53  1  0  0  0
 30 54  1  0  0  0
 30 55  1  0  0  0
M  END
> <s_m_entry_id>
41192

> <s_m_entry_name>
dock_pv.309

> <s_m_Source_Path>
/home/csk/Desktop/cluster/DUD-E-result/tysy

> <s_m_Source_File>
dock_pv.maegz

> <i_m_Source_File_Index>
309

> <chembl_id>
CHEMBL168524

> <chembl_pref_name>
None

> <i_lp_mmshare_version>
53161

> <r_lp_tautomer_probability>
1

> <s_lp_Force_Field>
OPLS_2005

> <r_lp_Energy>
11.19346

> <b_lp_Chiralities_Consistent>
1

> <s_lp_Variant>
CHEMBL1952_lig401-1

> <s_i_glide_gridfile>
glide-grid_1syn

> <i_i_glide_lignum>
788

> <i_i_glide_rotatable_bonds>
4

> <r_i_docking_score>
-7.65304662397951

> <r_i_glide_ligand_efficiency>
-0.25510155413265

> <r_i_glide_ligand_efficiency_sa>
-0.792659840421655

> <r_i_glide_ligand_efficiency_ln>
-1.73885557958986

> <r_i_glide_gscore>
-7.65304662397951

> <r_i_glide_lipo>
-3.89189948370046

> <r_i_glide_hbond>
-0.128683190446481

> <r_i_glide_metal>
0

> <r_i_glide_rewards>
-1.21359405484641

> <r_i_glide_evdw>
-47.519645690918

> <r_i_glide_ecoul>
-3.14686751365662

> <r_i_glide_erotb>
0.434539293802962

> <r_i_glide_esite>
-0.00539677719472124

> <r_i_glide_emodel>
-74.0600337341295

> <r_i_glide_energy>
-50.6665132045746

> <r_i_glide_einternal>
2.36386942863464

> <i_i_glide_confnum>
173

> <i_i_glide_posenum>
94

> <r_i_glide_eff_state_penalty>
0

> <s_user_duplicate_titles>
CHEMBL1952_lig401,283146

> <i_f3d_flags>
0

> <s_m_subgroup_title>
dock_pv

> <s_m_subgroupid>
dock_pv

> <b_m_subgroup_collapsed>
1

$$$$
CHEMBL1952_lig474
                    3D
 Schrodinger Suite 2021-1.
 21 23  0  0  1  0            999 V2000
   15.7913   16.8263   33.9156 O   0  0  0  0  0  0
   14.8897   17.7720   33.5508 C   0  0  0  0  0  0
   16.3106   15.8649   33.1083 C   0  0  0  0  0  0
   14.8433   16.7511   31.2347 C   0  0  0  0  0  0
   14.3496   17.7211   32.1589 C   0  0  0  0  0  0
   15.8314   15.8236   31.6924 C   0  0  0  0  0  0
   14.5933   18.6130   34.3919 O   0  0  0  0  0  0
   17.1417   15.1044   33.6038 O   0  0  0  0  0  0
   14.3733   16.7204   29.8932 C   0  0  0  0  0  0
   16.3239   14.8800   30.7858 C   0  0  0  0  0  0
   13.3811   18.6290   31.7166 C   0  0  0  0  0  0
   12.9041   18.5909   30.4075 C   0  0  0  0  0  0
   15.8574   14.8381   29.4754 C   0  0  0  0  0  0
   14.9095   15.7478   29.0182 C   0  0  0  0  0  0
   13.3903   17.6570   29.4958 C   0  0  0  0  0  0
   17.0647   14.1516   31.0922 H   0  0  0  0  0  0
   12.9883   19.3835   32.3862 H   0  0  0  0  0  0
   12.1557   19.3046   30.0951 H   0  0  0  0  0  0
   16.2334   14.0874   28.7967 H   0  0  0  0  0  0
   14.5821   15.7100   27.9891 H   0  0  0  0  0  0
   13.0213   17.6530   28.4813 H   0  0  0  0  0  0
  1  2  1  0  0  0
  1  3  1  0  0  0
  2  5  1  0  0  0
  2  7  2  0  0  0
  3  6  1  0  0  0
  3  8  2  0  0  0
  4  6  2  0  0  0
  4  9  1  0  0  0
  4  5  1  0  0  0
  5 11  2  0  0  0
  6 10  1  0  0  0
  9 15  1  0  0  0
  9 14  2  0  0  0
 10 13  2  0  0  0
 10 16  1  0  0  0
 11 12  1  0  0  0
 11 17  1  0  0  0
 12 15  2  0  0  0
 12 18  1  0  0  0
 13 14  1  0  0  0
 13 19  1  0  0  0
 14 20  1  0  0  0
 15 21  1  0  0  0
M  END
> <s_m_entry_id>
41194

> <s_m_entry_name>
dock_pv.311

> <s_m_Source_Path>
/home/csk/Desktop/cluster/DUD-E-result/tysy

> <s_m_Source_File>
dock_pv.maegz

> <i_m_Source_File_Index>
311

> <chembl_id>
CHEMBL316059

> <chembl_pref_name>
1,8-NAPHTHALIC ANHYDRIDE

> <i_lp_mmshare_version>
53161

> <r_lp_tautomer_probability>
1

> <s_lp_Force_Field>
OPLS_2005

> <r_lp_Energy>
33.79385

> <b_lp_Chiralities_Consistent>
1

> <s_lp_Variant>
CHEMBL1952_lig474-1

> <s_i_glide_gridfile>
glide-grid_1syn

> <i_i_glide_lignum>
904

> <i_i_glide_rotatable_bonds>
0

> <r_i_docking_score>
-7.64326833204469

> <r_i_glide_ligand_efficiency>
-0.509551222136312

> <r_i_glide_ligand_efficiency_sa>
-1.25666137538805

> <r_i_glide_ligand_efficiency_ln>
-2.06126344507762

> <r_i_glide_gscore>
-7.64326833204469

> <r_i_glide_lipo>
-2.67527520343272

> <r_i_glide_hbond>
0

> <r_i_glide_metal>
0

> <r_i_glide_rewards>
-3.15696846873991

> <r_i_glide_evdw>
-31.2249050140381

> <r_i_glide_ecoul>
-1.66519606113434

> <r_i_glide_erotb>
0

> <r_i_glide_esite>
0

> <r_i_glide_emodel>
-48.1341930850195

> <r_i_glide_energy>
-32.8901010751724

> <r_i_glide_einternal>
0

> <i_i_glide_confnum>
1

> <i_i_glide_posenum>
115

> <r_i_glide_eff_state_penalty>
0

> <s_user_duplicate_titles>
CHEMBL1952_lig474

> <i_f3d_flags>
0

> <s_m_subgroup_title>
dock_pv

> <s_m_subgroupid>
dock_pv

> <b_m_subgroup_collapsed>
1

$$$$
CHEMBL1952_lig130
                    3D
 Schrodinger Suite 2021-1.
 31 33  0  0  1  0            999 V2000
   14.4845   17.0590   32.0954 C   0  0  0  0  0  0
   14.5182   16.9397   30.6845 C   0  0  0  0  0  0
   13.8033   17.6503   29.8102 N   0  0  0  0  0  0
   15.3984   16.0776   32.6419 C   0  0  0  0  0  0
   13.6064   18.0517   32.5917 C   0  0  0  0  0  0
   12.8647   18.7935   31.7305 N   0  0  0  0  0  0
   12.9920   18.5523   30.4075 C   0  0  0  0  0  0
   15.4217   15.9580   30.3835 N   0  0  0  0  0  0
   15.9686   15.4280   31.5291 C   0  0  0  0  0  0
   15.6126   15.8280   34.3910 S   0  0  0  0  0  0
   16.8926   14.6276   34.5817 C   0  0  0  0  0  0
   13.5516   18.2280   33.9460 O   0  0  0  0  0  0
   18.1989   14.8987   34.1705 C   0  0  0  0  0  0
   16.5920   13.4057   35.1910 C   0  0  0  0  0  0
   17.5613   12.4063   35.2674 C   0  0  0  0  0  0
   19.1742   13.9064   34.2755 C   0  0  0  0  0  0
   18.8478   12.6517   34.7910 C   0  0  0  0  0  0
   12.1920   19.2986   29.5654 N   0  0  0  0  0  0
   17.1714   10.8712   35.9550 Cl  0  0  0  0  0  0
   20.7894   14.2280   33.7757 Cl  0  0  0  0  0  0
   16.9920   14.3230   31.3497 C   0  0  0  0  0  0
   15.6712   15.6309   29.4628 H   0  0  0  0  0  0
   13.1189   19.0647   34.1693 H   0  0  0  0  0  0
   18.4486   15.8585   33.7435 H   0  0  0  0  0  0
   15.5953   13.2150   35.5622 H   0  0  0  0  0  0
   19.6021   11.8803   34.8474 H   0  0  0  0  0  0
   12.1649   19.0144   28.6004 H   0  0  0  0  0  0
   11.3449   19.6783   29.9805 H   0  0  0  0  0  0
   16.9291   13.5529   32.1155 H   0  0  0  0  0  0
   16.8735   13.7946   30.4024 H   0  0  0  0  0  0
   18.0104   14.7124   31.3609 H   0  0  0  0  0  0
  1  2  1  0  0  0
  1  4  1  0  0  0
  1  5  2  0  0  0
  2  3  2  0  0  0
  2  8  1  0  0  0
  3  7  1  0  0  0
  4  9  2  0  0  0
  4 10  1  0  0  0
  5  6  1  0  0  0
  5 12  1  0  0  0
  6  7  2  0  0  0
  7 18  1  0  0  0
  8  9  1  0  0  0
  8 22  1  0  0  0
  9 21  1  0  0  0
 10 11  1  0  0  0
 11 13  1  0  0  0
 11 14  2  0  0  0
 12 23  1  0  0  0
 13 16  2  0  0  0
 13 24  1  0  0  0
 14 15  1  0  0  0
 14 25  1  0  0  0
 15 17  2  0  0  0
 15 19  1  0  0  0
 16 20  1  0  0  0
 16 17  1  0  0  0
 17 26  1  0  0  0
 18 27  1  0  0  0
 18 28  1  0  0  0
 21 29  1  0  0  0
 21 30  1  0  0  0
 21 31  1  0  0  0
M  END
> <s_m_entry_id>
41195

> <s_m_entry_name>
dock_pv.312

> <s_m_Source_Path>
/home/csk/Desktop/cluster/DUD-E-result/tysy

> <s_m_Source_File>
dock_pv.maegz

> <i_m_Source_File_Index>
312

> <chembl_id>
CHEMBL196235

> <chembl_pref_name>
None

> <i_lp_mmshare_version>
53161

> <r_lp_tautomer_probability>
1

> <s_lp_Force_Field>
OPLS_2005

> <r_lp_Energy>
1.761726

> <b_lp_Chiralities_Consistent>
1

> <s_lp_Variant>
CHEMBL1952_lig130-1

> <s_i_glide_gridfile>
glide-grid_1syn

> <i_i_glide_lignum>
307

> <i_i_glide_rotatable_bonds>
3

> <r_i_docking_score>
-7.64195470770042

> <r_i_glide_ligand_efficiency>
-0.363902605128592

> <r_i_glide_ligand_efficiency_sa>
-1.00397969411846

> <r_i_glide_ligand_efficiency_ln>
-1.88945785945545

> <r_i_glide_gscore>
-7.64195470770042

> <r_i_glide_lipo>
-2.6766315788198

> <r_i_glide_hbond>
-0.445742784709071

> <r_i_glide_metal>
0

> <r_i_glide_rewards>
-1.77787443687722

> <r_i_glide_evdw>
-42.7600021362305

> <r_i_glide_ecoul>
-5.81138849258423

> <r_i_glide_erotb>
0.325473184923923

> <r_i_glide_esite>
-0.0574707115190977

> <r_i_glide_emodel>
-68.4866412897686

> <r_i_glide_energy>
-48.5713906288147

> <r_i_glide_einternal>
4.88721942901611

> <i_i_glide_confnum>
11

> <i_i_glide_posenum>
31

> <r_i_glide_eff_state_penalty>
0

> <s_user_duplicate_titles>
CHEMBL1952_lig130

> <i_f3d_flags>
0

> <s_m_subgroup_title>
dock_pv

> <s_m_subgroupid>
dock_pv

> <b_m_subgroup_collapsed>
1

$$$$
CHEMBL1952_lig36
                    3D
 Schrodinger Suite 2021-1.
 25 27  0  0  1  0            999 V2000
   14.3465   18.0980   32.9041 C   0  0  0  0  0  0
   14.6876   17.2193   31.8090 C   0  0  0  0  0  0
   13.3861   19.0283   32.7911 N   0  0  0  0  0  0
   12.7393   19.1377   31.6304 C   0  0  0  0  0  0
   12.9317   18.3819   30.5360 N   0  0  0  0  0  0
   13.9057   17.4336   30.6221 C   0  0  0  0  0  0
   15.7051   16.2038   31.7900 C   0  0  0  0  0  0
   14.9908   18.0292   34.1000 O   0  0  0  0  0  0
   15.8904   15.4279   30.5988 C   0  0  0  0  0  0
   16.5768   15.9092   32.8892 C   0  0  0  0  0  0
   14.1298   16.6619   29.4714 C   0  0  0  0  0  0
   11.7923   20.1404   31.5911 N   0  0  0  0  0  0
   15.0928   15.6701   29.4632 C   0  0  0  0  0  0
   16.8817   14.4191   30.5540 C   0  0  0  0  0  0
   17.5593   14.9300   32.7999 C   0  0  0  0  0  0
   17.7123   14.1864   31.6415 C   0  0  0  0  0  0
   18.7102   14.6195   34.2823 Br  0  0  0  0  0  0
   14.5992   18.6928   34.6755 H   0  0  0  0  0  0
   16.5345   16.4314   33.8243 H   0  0  0  0  0  0
   13.5431   16.8516   28.5847 H   0  0  0  0  0  0
   11.1022   20.1275   30.8452 H   0  0  0  0  0  0
   11.6409   20.6484   32.4490 H   0  0  0  0  0  0
   15.2485   15.0834   28.5691 H   0  0  0  0  0  0
   16.9917   13.8289   29.6568 H   0  0  0  0  0  0
   18.4802   13.4277   31.5852 H   0  0  0  0  0  0
  1  2  1  0  0  0
  1  3  2  0  0  0
  1  8  1  0  0  0
  2  6  2  0  0  0
  2  7  1  0  0  0
  3  4  1  0  0  0
  4  5  2  0  0  0
  4 12  1  0  0  0
  5  6  1  0  0  0
  6 11  1  0  0  0
  7  9  2  0  0  0
  7 10  1  0  0  0
  8 18  1  0  0  0
  9 13  1  0  0  0
  9 14  1  0  0  0
 10 15  2  0  0  0
 10 19  1  0  0  0
 11 13  2  0  0  0
 11 20  1  0  0  0
 12 21  1  0  0  0
 12 22  1  0  0  0
 13 23  1  0  0  0
 14 16  2  0  0  0
 14 24  1  0  0  0
 15 16  1  0  0  0
 15 17  1  0  0  0
 16 25  1  0  0  0
M  END
> <s_m_entry_id>
41196

> <s_m_entry_name>
dock_pv.313

> <s_m_Source_Path>
/home/csk/Desktop/cluster/DUD-E-result/tysy

> <s_m_Source_File>
dock_pv.maegz

> <i_m_Source_File_Index>
313

> <chembl_id>
CHEMBL306705

> <chembl_pref_name>
None

> <i_lp_mmshare_version>
53161

> <r_lp_tautomer_probability>
1

> <s_lp_Force_Field>
OPLS_2005

> <r_lp_Energy>
13.044023

> <b_lp_Chiralities_Consistent>
1

> <s_lp_Variant>
CHEMBL1952_lig36-1

> <s_i_glide_gridfile>
glide-grid_1syn

> <i_i_glide_lignum>
50

> <i_i_glide_rotatable_bonds>
1

> <r_i_docking_score>
-7.64024092517792

> <r_i_glide_ligand_efficiency>
-0.449425936775172

> <r_i_glide_ligand_efficiency_sa>
-1.15560063650298

> <r_i_glide_ligand_efficiency_ln>
-1.99316871757866

> <r_i_glide_gscore>
-7.64024092517792

> <r_i_glide_lipo>
-2.94279023668016

> <r_i_glide_hbond>
-0.318411042683875

> <r_i_glide_metal>
0

> <r_i_glide_rewards>
-2.00288001360792

> <r_i_glide_evdw>
-37.3632545471191

> <r_i_glide_ecoul>
-3.38664603233337

> <r_i_glide_erotb>
0

> <r_i_glide_esite>
0

> <r_i_glide_emodel>
-59.5593503810397

> <r_i_glide_energy>
-40.7499005794525

> <r_i_glide_einternal>
0.909346878528595

> <i_i_glide_confnum>
1

> <i_i_glide_posenum>
90

> <r_i_glide_eff_state_penalty>
0

> <s_user_duplicate_titles>
CHEMBL1952_lig36

> <i_f3d_flags>
0

> <s_m_subgroup_title>
dock_pv

> <s_m_subgroupid>
dock_pv

> <b_m_subgroup_collapsed>
1

$$$$
CHEMBL1952_lig24
                    3D
 Schrodinger Suite 2021-1.
 25 27  0  0  1  0            999 V2000
   14.2471   17.8292   32.2647 C   0  0  0  0  0  0
   14.9618   16.7715   31.5671 C   0  0  0  0  0  0
   13.3208   18.5952   31.6463 N   0  0  0  0  0  0
   13.0933   18.3707   30.3424 C   0  0  0  0  0  0
   13.6726   17.4290   29.5806 N   0  0  0  0  0  0
   14.5934   16.6359   30.1852 C   0  0  0  0  0  0
   15.9730   15.8885   32.0916 C   0  0  0  0  0  0
   14.5114   18.1035   33.5747 O   0  0  0  0  0  0
   16.5920   14.9316   31.2157 C   0  0  0  0  0  0
   16.4188   15.8832   33.4535 C   0  0  0  0  0  0
   15.1898   15.6592   29.3729 C   0  0  0  0  0  0
   12.1921   19.2072   29.7109 N   0  0  0  0  0  0
   16.1662   14.8257   29.8789 C   0  0  0  0  0  0
   17.6139   14.0734   31.6930 C   0  0  0  0  0  0
   17.4135   15.0145   33.8938 C   0  0  0  0  0  0
   18.0167   14.1263   33.0187 C   0  0  0  0  0  0
   17.7917   15.0278   35.1908 F   0  0  0  0  0  0
   13.9623   18.8399   33.8641 H   0  0  0  0  0  0
   16.0041   16.5302   34.2018 H   0  0  0  0  0  0
   14.8871   15.5638   28.3390 H   0  0  0  0  0  0
   11.9213   18.9937   28.7642 H   0  0  0  0  0  0
   11.5730   19.7557   30.2924 H   0  0  0  0  0  0
   16.5944   14.0726   29.2348 H   0  0  0  0  0  0
   18.0791   13.3625   31.0232 H   0  0  0  0  0  0
   18.7936   13.4619   33.3702 H   0  0  0  0  0  0
  1  2  1  0  0  0
  1  3  2  0  0  0
  1  8  1  0  0  0
  2  6  2  0  0  0
  2  7  1  0  0  0
  3  4  1  0  0  0
  4  5  2  0  0  0
  4 12  1  0  0  0
  5  6  1  0  0  0
  6 11  1  0  0  0
  7  9  2  0  0  0
  7 10  1  0  0  0
  8 18  1  0  0  0
  9 13  1  0  0  0
  9 14  1  0  0  0
 10 15  2  0  0  0
 10 19  1  0  0  0
 11 13  2  0  0  0
 11 20  1  0  0  0
 12 21  1  0  0  0
 12 22  1  0  0  0
 13 23  1  0  0  0
 14 16  2  0  0  0
 14 24  1  0  0  0
 15 16  1  0  0  0
 15 17  1  0  0  0
 16 25  1  0  0  0
M  END
> <s_m_entry_id>
41197

> <s_m_entry_name>
dock_pv.314

> <s_m_Source_Path>
/home/csk/Desktop/cluster/DUD-E-result/tysy

> <s_m_Source_File>
dock_pv.maegz

> <i_m_Source_File_Index>
314

> <chembl_id>
CHEMBL74440

> <chembl_pref_name>
None

> <i_lp_mmshare_version>
53161

> <r_lp_tautomer_probability>
1

> <s_lp_Force_Field>
OPLS_2005

> <r_lp_Energy>
14.135169

> <b_lp_Chiralities_Consistent>
1

> <s_lp_Variant>
CHEMBL1952_lig24-1

> <s_i_glide_gridfile>
glide-grid_1syn

> <i_i_glide_lignum>
28

> <i_i_glide_rotatable_bonds>
1

> <r_i_docking_score>
-7.63490568784251

> <r_i_glide_ligand_efficiency>
-0.449112099284853

> <r_i_glide_ligand_efficiency_sa>
-1.15479367194243

> <r_i_glide_ligand_efficiency_ln>
-1.99177687296774

> <r_i_glide_gscore>
-7.63490568784251

> <r_i_glide_lipo>
-2.65855949344166

> <r_i_glide_hbond>
-0.134354750858286

> <r_i_glide_metal>
0

> <r_i_glide_rewards>
-2.47505020960019

> <r_i_glide_evdw>
-34.3546180725098

> <r_i_glide_ecoul>
-3.95074892044067

> <r_i_glide_erotb>
0

> <r_i_glide_esite>
-0.0565979922507845

> <r_i_glide_emodel>
-56.2734423349938

> <r_i_glide_energy>
-38.3053669929504

> <r_i_glide_einternal>
0.908747792243958

> <i_i_glide_confnum>
1

> <i_i_glide_posenum>
42

> <r_i_glide_eff_state_penalty>
0

> <s_user_duplicate_titles>
CHEMBL1952_lig24

> <i_f3d_flags>
0

> <s_m_subgroup_title>
dock_pv

> <s_m_subgroupid>
dock_pv

> <b_m_subgroup_collapsed>
1

$$$$
CHEMBL1952_lig109
                    3D
 Schrodinger Suite 2021-1.
 54 56  0  0  1  0            999 V2000
   14.1033   17.6496   31.3680 N   0  0  0  0  0  0
   14.7459   17.2706   32.4941 C   0  0  0  0  0  0
   15.7322   16.2385   32.4809 C   0  0  0  0  0  0
   14.4421   17.0212   30.2251 C   0  0  0  0  0  0
   15.3624   16.0436   30.0805 N   0  0  0  0  0  0
   12.5021   12.2965   37.6706 C   0  0  0  0  0  0
   16.0104   15.6461   31.2115 C   0  0  0  0  0  0
   11.6524   13.3382   37.5713 N   0  0  0  0  0  0
   17.6707   12.9414   35.1872 N   0  0  0  0  0  0
   18.5974   11.9508   35.2117 C   0  0  0  0  0  0
   10.1440   13.5032   39.5910 C   0  0  0  0  0  0
   19.3924   11.0228   35.1961 C   0  0  0  0  0  0
   10.2576   13.4162   38.0484 C   0  0  2  0  0  0
   16.4384   15.7791   33.6213 C   0  0  0  0  0  0
   13.8622   12.4870   37.0444 C   0  0  0  0  0  0
   16.4039   12.7964   35.8283 C   0  0  0  0  0  0
   18.1380   14.2711   34.7473 C   0  0  0  0  0  0
    9.0330   14.2280   39.9360 O   0  0  0  0  0  0
   12.1993   11.2198   38.1877 O   0  0  0  0  0  0
   17.3887   14.7605   33.5107 C   0  0  0  0  0  0
   10.9469   13.0384   40.3765 O   0  0  0  0  0  0
   16.9913   14.6303   31.1217 C   0  0  0  0  0  0
   14.4774   13.7443   36.9864 C   0  0  0  0  0  0
   14.5362   11.3834   36.5125 C   0  0  0  0  0  0
   15.7804   11.5385   35.9107 C   0  0  0  0  0  0
   15.7267   13.8911   36.3904 C   0  0  0  0  0  0
   13.7883   17.4401   29.0828 N   0  0  0  0  0  0
    7.8965   10.2144   36.1484 O   0  0  0  0  0  0
   14.4804   17.8751   33.6942 O   0  0  0  0  0  0
   17.6682   14.2041   32.2622 C   0  0  0  0  0  0
    8.5518   10.9525   35.4116 C   0  0  0  0  0  0
    9.3340   12.2921   37.4974 C   0  0  0  0  0  0
    9.3818   12.1208   35.9586 C   0  0  0  0  0  0
   11.9901   14.1618   37.1003 H   0  0  0  0  0  0
   20.1128   10.2361   35.1461 H   0  0  0  0  0  0
    9.9010   14.3643   37.6422 H   0  0  0  0  0  0
   16.2147   16.2248   34.5786 H   0  0  0  0  0  0
   19.2017   14.2625   34.4995 H   0  0  0  0  0  0
   18.0716   14.9951   35.5595 H   0  0  0  0  0  0
    8.6047   14.6698   39.1911 H   0  0  0  0  0  0
   17.2062   14.1855   30.1612 H   0  0  0  0  0  0
   14.0112   14.6199   37.4159 H   0  0  0  0  0  0
   14.0919   10.3987   36.5436 H   0  0  0  0  0  0
   16.2531   10.6645   35.4870 H   0  0  0  0  0  0
   16.1565   14.8791   36.3947 H   0  0  0  0  0  0
   14.0477   17.0367   28.1970 H   0  0  0  0  0  0
   13.1465   18.2146   29.1618 H   0  0  0  0  0  0
   13.8276   18.5719   33.5805 H   0  0  0  0  0  0
   18.4159   13.4242   32.1731 H   0  0  0  0  0  0
    8.5875   10.8268   34.3282 H   0  0  0  0  0  0
    9.5987   11.3420   37.9660 H   0  0  0  0  0  0
    8.3004   12.4887   37.7938 H   0  0  0  0  0  0
    9.0280   13.0281   35.4738 H   0  0  0  0  0  0
   10.4096   11.9647   35.6287 H   0  0  0  0  0  0
  1  2  2  0  0  0
  1  4  1  0  0  0
  2  3  1  0  0  0
  2 29  1  0  0  0
  3 14  1  0  0  0
  3  7  2  0  0  0
  4  5  2  0  0  0
  4 27  1  0  0  0
  5  7  1  0  0  0
  6 15  1  0  0  0
  6  8  1  0  0  0
  6 19  2  0  0  0
  7 22  1  0  0  0
  8 13  1  0  0  0
  8 34  1  0  0  0
  9 17  1  0  0  0
  9 10  1  0  0  0
  9 16  1  0  0  0
 10 12  3  0  0  0
 11 13  1  0  0  0
 11 18  1  0  0  0
 11 21  2  0  0  0
 12 35  1  0  0  0
 13 32  1  0  0  0
 13 36  1  0  0  0
 14 20  2  0  0  0
 14 37  1  0  0  0
 15 23  1  0  0  0
 15 24  2  0  0  0
 16 25  2  0  0  0
 16 26  1  0  0  0
 17 20  1  0  0  0
 17 38  1  0  0  0
 17 39  1  0  0  0
 18 40  1  0  0  0
 20 30  1  0  0  0
 22 30  2  0  0  0
 22 41  1  0  0  0
 23 26  2  0  0  0
 23 42  1  0  0  0
 24 25  1  0  0  0
 24 43  1  0  0  0
 25 44  1  0  0  0
 26 45  1  0  0  0
 27 46  1  0  0  0
 27 47  1  0  0  0
 28 31  2  0  0  0
 29 48  1  0  0  0
 30 49  1  0  0  0
 31 33  1  0  0  0
 31 50  1  0  0  0
 32 33  1  0  0  0
 32 51  1  0  0  0
 32 52  1  0  0  0
 33 53  1  0  0  0
 33 54  1  0  0  0
M  END
> <s_m_entry_id>
41198

> <s_m_entry_name>
dock_pv.315

> <s_m_Source_Path>
/home/csk/Desktop/cluster/DUD-E-result/tysy

> <s_m_Source_File>
dock_pv.maegz

> <i_m_Source_File_Index>
315

> <chembl_id>
CHEMBL1160200

> <chembl_pref_name>
None

> <i_lp_mmshare_version>
53161

> <r_lp_tautomer_probability>
0.99990000499975

> <s_lp_Force_Field>
OPLS_2005

> <r_lp_Energy>
12.163793

> <b_lp_Chiralities_Consistent>
1

> <s_lp_Variant>
CHEMBL1952_lig109-2

> <s_i_glide_gridfile>
glide-grid_1syn

> <i_i_glide_lignum>
279

> <i_i_glide_rotatable_bonds>
13

> <r_i_docking_score>
-7.63367379304095

> <r_i_glide_ligand_efficiency>
-0.231323448273968

> <r_i_glide_ligand_efficiency_sa>
-0.74197790080699

> <r_i_glide_ligand_efficiency_ln>
-1.69768952652474

> <r_i_glide_gscore>
-7.63367379304095

> <r_i_glide_lipo>
-3.26193963678673

> <r_i_glide_hbond>
0

> <r_i_glide_metal>
0

> <r_i_glide_rewards>
-1.42590579427445

> <r_i_glide_evdw>
-52.7812194824219

> <r_i_glide_ecoul>
-8.56155490875244

> <r_i_glide_erotb>
1.00020462753588

> <r_i_glide_esite>
-0.0227387790816993

> <r_i_glide_emodel>
-87.3634232283516

> <r_i_glide_energy>
-61.3427743911743

> <r_i_glide_einternal>
6.00545072555542

> <i_i_glide_confnum>
77

> <i_i_glide_posenum>
230

> <r_i_glide_eff_state_penalty>
0

> <s_user_duplicate_titles>
CHEMBL1952_lig109,641739

> <i_f3d_flags>
0

> <s_m_subgroup_title>
dock_pv

> <s_m_subgroupid>
dock_pv

> <b_m_subgroup_collapsed>
1

$$$$
CHEMBL1952_lig50
                    3D
 Schrodinger Suite 2021-1.
 27 29  0  0  1  0            999 V2000
   14.0129   17.8269   32.2007 C   0  0  0  0  0  0
   14.8316   16.7848   31.6043 C   0  0  0  0  0  0
   13.1346   18.5495   31.4707 N   0  0  0  0  0  0
   17.7438   14.2507   33.4877 C   0  0  0  0  0  0
   18.7900   13.4400   34.1201 N   0  3  0  0  0  0
   13.0720   18.3093   30.1511 C   0  0  0  0  0  0
   13.7935   17.4037   29.4678 N   0  0  0  0  0  0
   15.7751   15.9203   32.2637 C   0  0  0  0  0  0
   14.6678   16.6501   30.1853 C   0  0  0  0  0  0
   16.8936   15.0281   34.2670 C   0  0  0  0  0  0
   17.5852   14.2340   32.1058 C   0  0  0  0  0  0
   15.9430   15.8550   33.6799 C   0  0  0  0  0  0
   16.5918   15.0353   31.4827 C   0  0  0  0  0  0
   18.5250   12.2715   34.3825 O   0  5  0  0  0  0
   14.1510   18.1466   33.5211 O   0  0  0  0  0  0
   19.8451   14.0037   34.3906 O   0  0  0  0  0  0
   15.4394   15.7264   29.4592 C   0  0  0  0  0  0
   16.3969   14.9542   30.0920 C   0  0  0  0  0  0
   12.1920   19.0866   29.4206 N   0  0  0  0  0  0
   16.9920   14.9643   36.1653 Br  0  0  0  0  0  0
   18.2187   13.5970   31.5008 H   0  0  0  0  0  0
   15.3238   16.4110   34.3579 H   0  0  0  0  0  0
   13.5925   18.8993   33.7438 H   0  0  0  0  0  0
   15.2972   15.6382   28.3912 H   0  0  0  0  0  0
   16.9917   14.2619   29.5149 H   0  0  0  0  0  0
   12.0502   18.8664   28.4481 H   0  0  0  0  0  0
   11.4806   19.5973   29.9283 H   0  0  0  0  0  0
  1  2  1  0  0  0
  1  3  2  0  0  0
  1 15  1  0  0  0
  2  8  2  0  0  0
  2  9  1  0  0  0
  3  6  1  0  0  0
  4 11  2  0  0  0
  4  5  1  0  0  0
  4 10  1  0  0  0
  5 14  1  0  0  0
  5 16  2  0  0  0
  6  7  2  0  0  0
  6 19  1  0  0  0
  7  9  1  0  0  0
  8 12  1  0  0  0
  8 13  1  0  0  0
  9 17  2  0  0  0
 10 12  2  0  0  0
 10 20  1  0  0  0
 11 13  1  0  0  0
 11 21  1  0  0  0
 12 22  1  0  0  0
 13 18  2  0  0  0
 15 23  1  0  0  0
 17 18  1  0  0  0
 17 24  1  0  0  0
 18 25  1  0  0  0
 19 26  1  0  0  0
 19 27  1  0  0  0
M  CHG  2   5   1  14  -1
M  END
> <s_m_entry_id>
41201

> <s_m_entry_name>
dock_pv.318

> <s_m_Source_Path>
/home/csk/Desktop/cluster/DUD-E-result/tysy

> <s_m_Source_File>
dock_pv.maegz

> <i_m_Source_File_Index>
318

> <chembl_id>
CHEMBL76106

> <chembl_pref_name>
None

> <i_lp_mmshare_version>
53161

> <r_lp_tautomer_probability>
1

> <s_lp_Force_Field>
OPLS_2005

> <r_lp_Energy>
21.098842

> <b_lp_Chiralities_Consistent>
1

> <s_lp_Variant>
CHEMBL1952_lig50-1

> <s_i_glide_gridfile>
glide-grid_1syn

> <i_i_glide_lignum>
68

> <i_i_glide_rotatable_bonds>
2

> <r_i_docking_score>
-7.62653823839303

> <r_i_glide_ligand_efficiency>
-0.381326911919652

> <r_i_glide_ligand_efficiency_sa>
-1.03508048636283

> <r_i_glide_ligand_efficiency_ln>
-1.90867098100385

> <r_i_glide_gscore>
-7.62653823839303

> <r_i_glide_lipo>
-2.80784947172772

> <r_i_glide_hbond>
-0.25925175508668

> <r_i_glide_metal>
0

> <r_i_glide_rewards>
-1.63266230249314

> <r_i_glide_evdw>
-40.4883117675781

> <r_i_glide_ecoul>
-4.42061567306519

> <r_i_glide_erotb>
0

> <r_i_glide_esite>
-0.239266769746808

> <r_i_glide_emodel>
-64.9890509139897

> <r_i_glide_energy>
-44.9089274406433

> <r_i_glide_einternal>
1.23511910438538

> <i_i_glide_confnum>
1

> <i_i_glide_posenum>
369

> <r_i_glide_eff_state_penalty>
0

> <s_user_duplicate_titles>
CHEMBL1952_lig50

> <i_f3d_flags>
0

> <s_m_subgroup_title>
dock_pv

> <s_m_subgroupid>
dock_pv

> <b_m_subgroup_collapsed>
1

$$$$
CHEMBL1952_lig41
                    3D
 Schrodinger Suite 2021-1.
 29 31  0  0  1  0            999 V2000
   14.1131   17.6458   33.2010 C   0  0  0  0  0  0
   14.6030   17.0369   31.9898 C   0  0  0  0  0  0
   13.1927   18.6281   33.1709 N   0  0  0  0  0  0
   12.6956   18.9954   31.9788 C   0  0  0  0  0  0
   12.9682   18.4189   30.7940 N   0  0  0  0  0  0
   13.9081   17.4354   30.7999 C   0  0  0  0  0  0
   15.6720   16.0902   31.8788 C   0  0  0  0  0  0
   14.5237   17.1588   34.4094 O   0  0  0  0  0  0
   15.8809   15.4282   30.6291 C   0  0  0  0  0  0
   16.5910   15.7923   32.9364 C   0  0  0  0  0  0
   14.1750   16.7982   29.5754 C   0  0  0  0  0  0
   11.7920   20.0420   31.9915 N   0  0  0  0  0  0
   15.1099   15.7796   29.5022 C   0  0  0  0  0  0
   16.8767   14.4345   30.5228 C   0  0  0  0  0  0
   17.5928   14.8357   32.7991 C   0  0  0  0  0  0
   17.7145   14.1480   31.5911 C   0  0  0  0  0  0
   18.4135   14.6416   33.8931 O   0  0  0  0  0  0
   19.4209   13.6362   33.8268 C   0  0  0  0  0  0
   14.9812   16.3235   34.3087 H   0  0  0  0  0  0
   16.5982   16.3369   33.8628 H   0  0  0  0  0  0
   13.6281   17.0969   28.6915 H   0  0  0  0  0  0
   11.2275   20.2253   31.1703 H   0  0  0  0  0  0
   11.6587   20.5149   32.8747 H   0  0  0  0  0  0
   15.2849   15.2799   28.5595 H   0  0  0  0  0  0
   16.9924   13.9031   29.5911 H   0  0  0  0  0  0
   18.4812   13.4022   31.4493 H   0  0  0  0  0  0
   19.9708   13.6095   34.7661 H   0  0  0  0  0  0
   20.1428   13.8377   33.0340 H   0  0  0  0  0  0
   18.9903   12.6462   33.6682 H   0  0  0  0  0  0
  1  2  1  0  0  0
  1  3  2  0  0  0
  1  8  1  0  0  0
  2  6  2  0  0  0
  2  7  1  0  0  0
  3  4  1  0  0  0
  4  5  2  0  0  0
  4 12  1  0  0  0
  5  6  1  0  0  0
  6 11  1  0  0  0
  7  9  2  0  0  0
  7 10  1  0  0  0
  8 19  1  0  0  0
  9 13  1  0  0  0
  9 14  1  0  0  0
 10 15  2  0  0  0
 10 20  1  0  0  0
 11 13  2  0  0  0
 11 21  1  0  0  0
 12 22  1  0  0  0
 12 23  1  0  0  0
 13 24  1  0  0  0
 14 16  2  0  0  0
 14 25  1  0  0  0
 15 16  1  0  0  0
 15 17  1  0  0  0
 16 26  1  0  0  0
 17 18  1  0  0  0
 18 27  1  0  0  0
 18 28  1  0  0  0
 18 29  1  0  0  0
M  END
> <s_m_entry_id>
41202

> <s_m_entry_name>
dock_pv.319

> <s_m_Source_Path>
/home/csk/Desktop/cluster/DUD-E-result/tysy

> <s_m_Source_File>
dock_pv.maegz

> <i_m_Source_File_Index>
319

> <chembl_id>
CHEMBL306255

> <chembl_pref_name>
None

> <i_lp_mmshare_version>
53161

> <r_lp_tautomer_probability>
1

> <s_lp_Force_Field>
OPLS_2005

> <r_lp_Energy>
17.914913

> <b_lp_Chiralities_Consistent>
1

> <s_lp_Variant>
CHEMBL1952_lig41-1

> <s_i_glide_gridfile>
glide-grid_1syn

> <i_i_glide_lignum>
55

> <i_i_glide_rotatable_bonds>
2

> <r_i_docking_score>
-7.6234638597423

> <r_i_glide_ligand_efficiency>
-0.423525769985683

> <r_i_glide_ligand_efficiency_sa>
-1.10995151584629

> <r_i_glide_ligand_efficiency_ln>
-1.95957207541135

> <r_i_glide_gscore>
-7.6234638597423

> <r_i_glide_lipo>
-2.73465371736675

> <r_i_glide_hbond>
-0.267512002276301

> <r_i_glide_metal>
0

> <r_i_glide_rewards>
-2.29868434052726

> <r_i_glide_evdw>
-37.0310325622559

> <r_i_glide_ecoul>
-3.14041447639465

> <r_i_glide_erotb>
0

> <r_i_glide_esite>
0

> <r_i_glide_emodel>
-59.212415422776

> <r_i_glide_energy>
-40.1714470386505

> <r_i_glide_einternal>
0.093600258231163

> <i_i_glide_confnum>
1

> <i_i_glide_posenum>
232

> <r_i_glide_eff_state_penalty>
0

> <s_user_duplicate_titles>
CHEMBL1952_lig41

> <i_f3d_flags>
0

> <s_m_subgroup_title>
dock_pv

> <s_m_subgroupid>
dock_pv

> <b_m_subgroup_collapsed>
1

$$$$
CHEMBL1952_lig65
                    3D
 Schrodinger Suite 2021-1.
 27 29  0  0  1  0            999 V2000
   15.7125   15.7462   33.1983 C   0  0  0  0  0  0
   15.4398   16.0227   31.7970 C   0  0  0  0  0  0
   16.7801   15.0272   33.6103 N   0  0  0  0  0  0
   13.7613   18.0167   31.8634 C   0  0  0  0  0  0
   13.9777   18.3862   33.2575 N   0  3  0  0  0  0
   14.4775   16.9348   31.2015 C   0  0  0  0  0  0
   17.5257   14.4369   32.6670 C   0  0  0  0  0  0
   17.2913   14.4592   31.3477 N   0  0  0  0  0  0
   16.2490   15.2205   30.9234 C   0  0  0  0  0  0
   12.8507   18.8241   31.1567 C   0  0  0  0  0  0
   13.0225   18.2268   34.0038 O   0  5  0  0  0  0
   14.7919   16.0497   34.1477 O   0  0  0  0  0  0
   15.0786   18.8068   33.5933 O   0  0  0  0  0  0
   14.2327   16.8127   29.7872 C   0  0  0  0  0  0
   15.9766   15.1516   29.5570 C   0  0  0  0  0  0
   18.5932   13.6755   33.1058 N   0  0  0  0  0  0
   12.5915   18.6060   29.8186 C   0  0  0  0  0  0
   14.9554   15.8929   29.0090 C   0  0  0  0  0  0
   13.2807   17.6265   29.1330 C   0  0  0  0  0  0
   11.9617   20.3040   31.9822 Br  0  0  0  0  0  0
   15.0993   15.7575   35.0074 H   0  0  0  0  0  0
   16.5604   14.4939   28.9310 H   0  0  0  0  0  0
   19.1634   13.1734   32.4297 H   0  0  0  0  0  0
   18.7881   13.6246   34.0895 H   0  0  0  0  0  0
   11.8785   19.2330   29.2995 H   0  0  0  0  0  0
   14.7418   15.8023   27.9538 H   0  0  0  0  0  0
   13.1064   17.5053   28.0721 H   0  0  0  0  0  0
  1  2  1  0  0  0
  1  3  2  0  0  0
  1 12  1  0  0  0
  2  6  2  0  0  0
  2  9  1  0  0  0
  3  7  1  0  0  0
  4  6  1  0  0  0
  4  5  1  0  0  0
  4 10  2  0  0  0
  5 11  1  0  0  0
  5 13  2  0  0  0
  6 14  1  0  0  0
  7  8  2  0  0  0
  7 16  1  0  0  0
  8  9  1  0  0  0
  9 15  2  0  0  0
 10 20  1  0  0  0
 10 17  1  0  0  0
 12 21  1  0  0  0
 14 19  1  0  0  0
 14 18  2  0  0  0
 15 18  1  0  0  0
 15 22  1  0  0  0
 16 23  1  0  0  0
 16 24  1  0  0  0
 17 19  2  0  0  0
 17 25  1  0  0  0
 18 26  1  0  0  0
 19 27  1  0  0  0
M  CHG  2   5   1  11  -1
M  END
> <s_m_entry_id>
41203

> <s_m_entry_name>
dock_pv.320

> <s_m_Source_Path>
/home/csk/Desktop/cluster/DUD-E-result/tysy

> <s_m_Source_File>
dock_pv.maegz

> <i_m_Source_File_Index>
320

> <chembl_id>
CHEMBL263192

> <chembl_pref_name>
None

> <i_lp_mmshare_version>
53161

> <r_lp_tautomer_probability>
1

> <s_lp_Force_Field>
OPLS_2005

> <r_lp_Energy>
35.626009

> <b_lp_Chiralities_Consistent>
1

> <s_lp_Variant>
CHEMBL1952_lig65-1

> <s_i_glide_gridfile>
glide-grid_1syn

> <i_i_glide_lignum>
99

> <i_i_glide_rotatable_bonds>
2

> <r_i_docking_score>
-7.59246573736446

> <r_i_glide_ligand_efficiency>
-0.379623286868223

> <r_i_glide_ligand_efficiency_sa>
-1.03045613651578

> <r_i_glide_ligand_efficiency_ln>
-1.90014375778269

> <r_i_glide_gscore>
-7.59246573736446

> <r_i_glide_lipo>
-3.13233690990648

> <r_i_glide_hbond>
-0.10239615692248

> <r_i_glide_metal>
0

> <r_i_glide_rewards>
-1.62797373101981

> <r_i_glide_evdw>
-39.9128341674805

> <r_i_glide_ecoul>
-3.98997521400452

> <r_i_glide_erotb>
0

> <r_i_glide_esite>
-0.135620949040996

> <r_i_glide_emodel>
-64.4331262914448

> <r_i_glide_energy>
-43.902809381485

> <r_i_glide_einternal>
1.0599091053009

> <i_i_glide_confnum>
1

> <i_i_glide_posenum>
269

> <r_i_glide_eff_state_penalty>
0

> <s_user_duplicate_titles>
CHEMBL1952_lig65

> <i_f3d_flags>
0

> <s_m_subgroup_title>
dock_pv

> <s_m_subgroupid>
dock_pv

> <b_m_subgroup_collapsed>
1

$$$$
CHEMBL1952_lig189
                    3D
 Schrodinger Suite 2021-1.
 62 64  0  0  1  0            999 V2000
   13.7937   17.9204   31.0813 N   0  0  0  0  0  0
   13.9336   17.2813   29.9830 C   0  0  0  0  0  0
   14.8199   16.2285   29.8031 N   0  0  0  0  0  0
   14.5723   17.6584   32.2090 C   0  0  0  0  0  0
   13.0629   17.6643   28.7874 C   0  0  0  0  0  0
   14.4955   18.2531   33.2823 O   0  0  0  0  0  0
   15.5855   16.5378   32.0503 C   0  0  0  0  0  0
   15.6635   15.8280   30.8472 C   0  0  0  0  0  0
   16.5702   14.7781   30.7095 C   0  0  0  0  0  0
   17.3767   14.4119   31.7938 C   0  0  0  0  0  0
   17.2963   15.1161   33.0045 C   0  0  0  0  0  0
   16.4363   16.2112   33.1053 C   0  0  0  0  0  0
   18.1368   14.7197   34.2160 C   0  0  0  0  0  0
   17.8036   13.3712   34.7148 N   0  0  0  0  0  0
   16.6768   13.1943   35.5910 C   0  0  0  0  0  0
   15.7392   14.2267   35.7753 C   0  0  0  0  0  0
   14.5933   14.0686   36.5470 C   0  0  0  0  0  0
   14.3391   12.8553   37.1916 C   0  0  0  0  0  0
   15.2845   11.8342   37.0747 C   0  0  0  0  0  0
   16.4305   12.0089   36.3043 C   0  0  0  0  0  0
   13.0751   12.6131   37.9823 C   0  0  0  0  0  0
   13.0137   11.6997   38.8091 O   0  0  0  0  0  0
   12.0111   13.3789   37.6655 N   0  0  0  0  0  0
   10.6045   13.1899   38.0771 C   0  0  1  0  0  0
   10.0784   11.8087   37.5742 C   0  0  0  0  0  0
   10.3155   13.4262   39.5842 C   0  0  0  0  0  0
   11.1007   12.6361   40.3733 O   0  0  0  0  0  0
    9.4767   14.2054   39.9909 O   0  0  0  0  0  0
   10.2440   11.5632   36.0480 C   0  0  0  0  0  0
   10.2353   10.0795   35.6653 C   0  0  0  0  0  0
   10.9778    9.8280   34.5486 O   0  0  0  0  0  0
    9.6304    9.2105   36.2880 O   0  0  0  0  0  0
   18.9072   12.4171   34.4620 C   0  0  0  0  0  0
   18.6425   10.9700   34.4007 C   0  0  0  0  0  0
   12.5912   19.1394   28.7720 C   0  0  0  0  0  0
   18.5912    9.7533   34.3499 C   0  0  0  0  0  0
   14.8680   15.7446   28.9221 H   0  0  0  0  0  0
   13.5906   17.4527   27.8566 H   0  0  0  0  0  0
   12.1808   17.0275   28.7924 H   0  0  0  0  0  0
   16.6360   14.2286   29.7822 H   0  0  0  0  0  0
   18.0560   13.5754   31.6953 H   0  0  0  0  0  0
   16.4029   16.7910   34.0144 H   0  0  0  0  0  0
   19.1842   14.7885   33.9143 H   0  0  0  0  0  0
   18.0385   15.4477   35.0220 H   0  0  0  0  0  0
   15.8599   15.1885   35.3220 H   0  0  0  0  0  0
   13.9172   14.9060   36.6232 H   0  0  0  0  0  0
   15.1424   10.8895   37.5803 H   0  0  0  0  0  0
   17.1155   11.1846   36.3126 H   0  0  0  0  0  0
   12.1559   14.1168   36.9937 H   0  0  0  0  0  0
   10.0484   13.9655   37.5466 H   0  0  0  0  0  0
   10.5651   10.9999   38.1229 H   0  0  0  0  0  0
    9.0167   11.7196   37.8124 H   0  0  0  0  0  0
   11.7547   12.1611   39.8368 H   0  0  0  0  0  0
    9.4654   12.0830   35.4892 H   0  0  0  0  0  0
   11.1912   11.9670   35.6927 H   0  0  0  0  0  0
   10.9883    8.8912   34.3142 H   0  0  0  0  0  0
   19.3575   12.6352   33.4924 H   0  0  0  0  0  0
   19.6992   12.5622   35.1910 H   0  0  0  0  0  0
   12.0317   19.3753   27.8677 H   0  0  0  0  0  0
   11.9430   19.3683   29.6200 H   0  0  0  0  0  0
   13.4335   19.8276   28.8048 H   0  0  0  0  0  0
   18.5922    8.6903   34.2850 H   0  0  0  0  0  0
  1  2  2  0  0  0
  1  4  1  0  0  0
  2  3  1  0  0  0
  2  5  1  0  0  0
  3  8  1  0  0  0
  3 37  1  0  0  0
  4  6  2  0  0  0
  4  7  1  0  0  0
  5 35  1  0  0  0
  5 38  1  0  0  0
  5 39  1  0  0  0
  7 12  1  0  0  0
  7  8  2  0  0  0
  8  9  1  0  0  0
  9 10  2  0  0  0
  9 40  1  0  0  0
 10 11  1  0  0  0
 10 41  1  0  0  0
 11 12  2  0  0  0
 11 13  1  0  0  0
 12 42  1  0  0  0
 13 14  1  0  0  0
 13 43  1  0  0  0
 13 44  1  0  0  0
 14 15  1  0  0  0
 14 33  1  0  0  0
 15 20  1  0  0  0
 15 16  2  0  0  0
 16 17  1  0  0  0
 16 45  1  0  0  0
 17 18  2  0  0  0
 17 46  1  0  0  0
 18 19  1  0  0  0
 18 21  1  0  0  0
 19 20  2  0  0  0
 19 47  1  0  0  0
 20 48  1  0  0  0
 21 22  2  0  0  0
 21 23  1  0  0  0
 23 24  1  0  0  0
 23 49  1  0  0  0
 24 25  1  0  0  0
 24 26  1  0  0  0
 24 50  1  0  0  0
 25 29  1  0  0  0
 25 51  1  0  0  0
 25 52  1  0  0  0
 26 27  1  0  0  0
 26 28  2  0  0  0
 27 53  1  0  0  0
 29 30  1  0  0  0
 29 54  1  0  0  0
 29 55  1  0  0  0
 30 31  1  0  0  0
 30 32  2  0  0  0
 31 56  1  0  0  0
 33 34  1  0  0  0
 33 57  1  0  0  0
 33 58  1  0  0  0
 34 36  3  0  0  0
 35 59  1  0  0  0
 35 60  1  0  0  0
 35 61  1  0  0  0
 36 62  1  0  0  0
M  END
> <s_m_entry_id>
41205

> <s_m_entry_name>
dock_pv.322

> <s_m_Source_Path>
/home/csk/Desktop/cluster/DUD-E-result/tysy

> <s_m_Source_File>
dock_pv.maegz

> <i_m_Source_File_Index>
322

> <chembl_id>
CHEMBL105370

> <chembl_pref_name>
None

> <i_lp_mmshare_version>
53161

> <r_lp_tautomer_probability>
0.116051

> <s_lp_Force_Field>
OPLS_2005

> <r_lp_Energy>
18.940672

> <b_lp_Chiralities_Consistent>
1

> <s_lp_Variant>
CHEMBL1952_lig189-2

> <s_i_glide_gridfile>
glide-grid_1syn

> <i_i_glide_lignum>
376

> <i_i_glide_rotatable_bonds>
15

> <r_i_docking_score>
-7.58268618787327

> <r_i_glide_ligand_efficiency>
-0.210630171885369

> <r_i_glide_ligand_efficiency_sa>
-0.695485503156895

> <r_i_glide_ligand_efficiency_ln>
-1.6543372656877

> <r_i_glide_gscore>
-7.58268618787327

> <r_i_glide_lipo>
-3.7079940388038

> <r_i_glide_hbond>
-0.137039497457091

> <r_i_glide_metal>
0

> <r_i_glide_rewards>
-0.841991102006432

> <r_i_glide_evdw>
-60.0509834289551

> <r_i_glide_ecoul>
-5.90637302398682

> <r_i_glide_erotb>
1.01502259295983

> <r_i_glide_esite>
-0.0221790175199975

> <r_i_glide_emodel>
-93.6323745167211

> <r_i_glide_energy>
-65.9573564529419

> <r_i_glide_einternal>
6.20538854598999

> <i_i_glide_confnum>
9

> <i_i_glide_posenum>
368

> <r_i_glide_eff_state_penalty>
0

> <s_user_duplicate_titles>
CHEMBL1952_lig189,170480

> <i_f3d_flags>
0

> <s_m_subgroup_title>
dock_pv

> <s_m_subgroupid>
dock_pv

> <b_m_subgroup_collapsed>
1

$$$$
CHEMBL1952_lig369
                    3D
 Schrodinger Suite 2021-1.
 27 29  0  0  1  0            999 V2000
   14.6716   16.9270   31.2475 C   0  0  0  0  0  0
   13.7199   17.7647   31.9827 C   0  0  0  0  0  0
   12.8829   18.4726   31.2006 N   0  0  0  0  0  0
   14.5338   16.8921   29.8876 C   0  0  0  0  0  0
   13.5933   17.6145   29.2076 N   0  0  0  0  0  0
   12.8089   18.3954   29.8512 C   0  0  0  0  0  0
   15.7190   16.0954   31.9186 C   0  0  0  0  0  0
   16.3073   15.0277   31.2077 C   0  0  0  0  0  0
   16.1927   16.3880   33.2076 C   0  0  0  0  0  0
   13.5983   17.8430   33.2001 O   0  0  0  0  0  0
   15.4228   15.9845   29.0439 C   0  0  0  0  0  0
   17.3095   14.2569   31.8121 C   0  0  0  0  0  0
   15.7989   14.7013   29.8083 C   0  0  0  0  0  0
   11.8536   19.1797   29.1912 N   0  0  0  0  0  0
   17.7207   14.5300   33.1134 C   0  0  0  0  0  0
   17.1783   15.6052   33.7971 C   0  0  0  0  0  0
   18.9908   13.4287   33.9915 Br  0  0  0  0  0  0
   15.8156   17.2248   33.7727 H   0  0  0  0  0  0
   12.2488   19.0643   31.7041 H   0  0  0  0  0  0
   16.3238   16.5434   28.7906 H   0  0  0  0  0  0
   14.9390   15.7303   28.1000 H   0  0  0  0  0  0
   17.7469   13.4205   31.2874 H   0  0  0  0  0  0
   14.9114   14.0767   29.8956 H   0  0  0  0  0  0
   16.5355   14.1230   29.2474 H   0  0  0  0  0  0
   11.6689   19.0314   28.2126 H   0  0  0  0  0  0
   11.0414   19.5179   29.6917 H   0  0  0  0  0  0
   17.5232   15.8277   34.7902 H   0  0  0  0  0  0
  1  2  1  0  0  0
  1  7  1  0  0  0
  1  4  2  0  0  0
  2  3  1  0  0  0
  2 10  2  0  0  0
  3  6  1  0  0  0
  3 19  1  0  0  0
  4  5  1  0  0  0
  4 11  1  0  0  0
  5  6  2  0  0  0
  6 14  1  0  0  0
  7  8  2  0  0  0
  7  9  1  0  0  0
  8 12  1  0  0  0
  8 13  1  0  0  0
  9 16  2  0  0  0
  9 18  1  0  0  0
 11 13  1  0  0  0
 11 20  1  0  0  0
 11 21  1  0  0  0
 12 15  2  0  0  0
 12 22  1  0  0  0
 13 23  1  0  0  0
 13 24  1  0  0  0
 14 25  1  0  0  0
 14 26  1  0  0  0
 15 16  1  0  0  0
 15 17  1  0  0  0
 16 27  1  0  0  0
M  END
> <s_m_entry_id>
41206

> <s_m_entry_name>
dock_pv.323

> <s_m_Source_Path>
/home/csk/Desktop/cluster/DUD-E-result/tysy

> <s_m_Source_File>
dock_pv.maegz

> <i_m_Source_File_Index>
323

> <chembl_id>
CHEMBL74772

> <chembl_pref_name>
None

> <i_lp_mmshare_version>
53161

> <r_lp_tautomer_probability>
0.878315377147829

> <s_lp_Force_Field>
OPLS_2005

> <r_lp_Energy>
18.044887

> <b_lp_Chiralities_Consistent>
1

> <s_lp_Variant>
CHEMBL1952_lig369-1

> <s_i_glide_gridfile>
glide-grid_1syn

> <i_i_glide_lignum>
737

> <i_i_glide_rotatable_bonds>
0

> <r_i_docking_score>
-7.57894139539724

> <r_i_glide_ligand_efficiency>
-0.44582008208219

> <r_i_glide_ligand_efficiency_sa>
-1.14632896872108

> <r_i_glide_ligand_efficiency_ln>
-1.97717703533229

> <r_i_glide_gscore>
-7.57894139539724

> <r_i_glide_lipo>
-2.79679284537295

> <r_i_glide_hbond>
-0.32

> <r_i_glide_metal>
0

> <r_i_glide_rewards>
-1.8179451275866

> <r_i_glide_evdw>
-35.1388626098633

> <r_i_glide_ecoul>
-5.42223596572876

> <r_i_glide_erotb>
0

> <r_i_glide_esite>
-0.0739248970852094

> <r_i_glide_emodel>
-58.5144191303851

> <r_i_glide_energy>
-40.561098575592

> <r_i_glide_einternal>
0

> <i_i_glide_confnum>
1

> <i_i_glide_posenum>
73

> <r_i_glide_eff_state_penalty>
0

> <s_user_duplicate_titles>
CHEMBL1952_lig369,CHEMBL1952_lig369,CHEMBL1952_lig369

> <i_f3d_flags>
0

> <s_m_subgroup_title>
dock_pv

> <s_m_subgroupid>
dock_pv

> <b_m_subgroup_collapsed>
1

$$$$
CHEMBL1952_lig92
                    3D
 Schrodinger Suite 2021-1.
 58 60  0  0  1  0            999 V2000
   13.2774   18.4877   31.9365 N   0  0  0  0  0  0
   15.1105   16.9419   32.3852 C   0  0  0  0  0  0
   14.2374   18.0029   32.7530 C   0  0  0  0  0  0
   13.1904   17.9193   30.7163 C   0  0  0  0  0  0
   13.9659   16.9273   30.2239 N   0  0  0  0  0  0
   16.0707   16.4468   33.2252 N   0  0  0  0  0  0
   13.4292   12.7012   37.9901 C   0  0  0  0  0  0
   14.9241   16.4380   31.0616 C   0  0  0  0  0  0
   13.3326   11.4426   38.4646 N   0  0  0  0  0  0
   10.9156   11.3167   39.1903 C   0  0  0  0  0  0
   17.7348   13.6134   34.2734 N   0  0  0  0  0  0
   18.9920   11.4449   34.7414 C   0  0  0  0  0  0
   12.3899   10.9190   39.4626 C   0  0  2  0  0  0
   18.9918   10.2278   34.8245 C   0  0  0  0  0  0
   14.5294   12.9288   36.9885 C   0  0  0  0  0  0
   16.8623   15.4391   32.7716 C   0  0  0  0  0  0
   13.7677   12.7442   42.7665 C   0  0  0  0  0  0
   16.6643   13.3937   35.1911 C   0  0  0  0  0  0
   17.9630   14.9636   33.7167 C   0  0  0  0  0  0
   12.7138   13.6305   38.3675 O   0  0  0  0  0  0
   10.1935   11.8650   39.9910 O   0  0  0  0  0  0
   15.7785   15.4003   30.6208 C   0  0  0  0  0  0
   13.3895   13.6617   43.4918 O   0  0  0  0  0  0
   14.3266   18.6280   33.9912 N   0  0  0  0  0  0
   15.0859   11.8742   36.2598 C   0  0  0  0  0  0
   15.0143   14.2200   36.7778 C   0  0  0  0  0  0
   16.0704   14.4419   35.9007 C   0  0  0  0  0  0
   16.1276   12.1130   35.3775 C   0  0  0  0  0  0
   12.1924   18.3854   29.8818 N   0  0  0  0  0  0
   12.9182   11.1600   40.9138 C   0  0  0  0  0  0
   13.3484   12.5986   41.3004 C   0  0  0  0  0  0
   19.0138   12.8890   34.4342 C   0  0  0  0  0  0
   10.5534   10.9380   37.9284 O   0  0  0  0  0  0
   16.7529   14.9019   31.4868 C   0  0  0  0  0  0
   14.5887   11.7437   43.1909 O   0  0  0  0  0  0
   14.0144   10.7796   38.1318 H   0  0  0  0  0  0
   12.3987    9.8367   39.3255 H   0  0  0  0  0  0
   18.9921    9.1634   34.7910 H   0  0  0  0  0  0
   18.8968   14.9990   33.1509 H   0  0  0  0  0  0
   18.1079   15.6846   34.5225 H   0  0  0  0  0  0
   15.6634   15.0035   29.6226 H   0  0  0  0  0  0
   15.0078   18.2987   34.6558 H   0  0  0  0  0  0
   13.6802   19.3823   34.2185 H   0  0  0  0  0  0
   14.7165   10.8628   36.3443 H   0  0  0  0  0  0
   14.5921   15.0539   37.3175 H   0  0  0  0  0  0
   16.4312   15.4429   35.7992 H   0  0  0  0  0  0
   16.4631   11.2775   34.7914 H   0  0  0  0  0  0
   11.5422   19.0832   30.2172 H   0  0  0  0  0  0
   12.1111   17.9848   28.9633 H   0  0  0  0  0  0
   12.1907   10.7911   41.6358 H   0  0  0  0  0  0
   13.7813   10.5069   41.0513 H   0  0  0  0  0  0
   14.1915   12.9238   40.6924 H   0  0  0  0  0  0
   12.5338   13.2963   41.1001 H   0  0  0  0  0  0
   19.5739   12.9672   33.5015 H   0  0  0  0  0  0
   19.6192   13.3765   35.1909 H   0  0  0  0  0  0
   11.2887   10.5848   37.4249 H   0  0  0  0  0  0
   17.4160   14.1083   31.1688 H   0  0  0  0  0  0
   14.8162   11.8284   44.1324 H   0  0  0  0  0  0
  1  3  2  0  0  0
  1  4  1  0  0  0
  2  3  1  0  0  0
  2  6  1  0  0  0
  2  8  2  0  0  0
  3 24  1  0  0  0
  4  5  2  0  0  0
  4 29  1  0  0  0
  5  8  1  0  0  0
  6 16  2  0  0  0
  7 15  1  0  0  0
  7  9  1  0  0  0
  7 20  2  0  0  0
  8 22  1  0  0  0
  9 13  1  0  0  0
  9 36  1  0  0  0
 10 13  1  0  0  0
 10 21  2  0  0  0
 10 33  1  0  0  0
 11 19  1  0  0  0
 11 18  1  0  0  0
 11 32  1  0  0  0
 12 32  1  0  0  0
 12 14  3  0  0  0
 13 30  1  0  0  0
 13 37  1  0  0  0
 14 38  1  0  0  0
 15 25  2  0  0  0
 15 26  1  0  0  0
 16 19  1  0  0  0
 16 34  1  0  0  0
 17 31  1  0  0  0
 17 23  2  0  0  0
 17 35  1  0  0  0
 18 27  1  0  0  0
 18 28  2  0  0  0
 19 39  1  0  0  0
 19 40  1  0  0  0
 22 34  2  0  0  0
 22 41  1  0  0  0
 24 42  1  0  0  0
 24 43  1  0  0  0
 25 28  1  0  0  0
 25 44  1  0  0  0
 26 27  2  0  0  0
 26 45  1  0  0  0
 27 46  1  0  0  0
 28 47  1  0  0  0
 29 48  1  0  0  0
 29 49  1  0  0  0
 30 31  1  0  0  0
 30 50  1  0  0  0
 30 51  1  0  0  0
 31 52  1  0  0  0
 31 53  1  0  0  0
 32 54  1  0  0  0
 32 55  1  0  0  0
 33 56  1  0  0  0
 34 57  1  0  0  0
 35 58  1  0  0  0
M  END
> <s_m_entry_id>
41207

> <s_m_entry_name>
dock_pv.324

> <s_m_Source_Path>
/home/csk/Desktop/cluster/DUD-E-result/tysy

> <s_m_Source_File>
dock_pv.maegz

> <i_m_Source_File_Index>
324

> <chembl_id>
CHEMBL348979

> <chembl_pref_name>
None

> <i_lp_mmshare_version>
53161

> <r_lp_tautomer_probability>
1

> <s_lp_Force_Field>
OPLS_2005

> <r_lp_Energy>
16.209316

> <b_lp_Chiralities_Consistent>
1

> <s_lp_Variant>
CHEMBL1952_lig92-2

> <s_i_glide_gridfile>
glide-grid_1syn

> <i_i_glide_lignum>
163

> <i_i_glide_rotatable_bonds>
14

> <r_i_docking_score>
-7.57789880981162

> <r_i_glide_ligand_efficiency>
-0.216511394566046

> <r_i_glide_ligand_efficiency_sa>
-0.708223127697616

> <r_i_glide_ligand_efficiency_ln>
-1.66351697115631

> <r_i_glide_gscore>
-7.57789880981162

> <r_i_glide_lipo>
-3.13017966460348

> <r_i_glide_hbond>
-0.306702960556364

> <r_i_glide_metal>
0

> <r_i_glide_rewards>
-0.482767451694608

> <r_i_glide_evdw>
-55.8153305053711

> <r_i_glide_ecoul>
-12.4536809921265

> <r_i_glide_erotb>
1.06627066254486

> <r_i_glide_esite>
-0.065700721414498

> <r_i_glide_emodel>
-94.4336733814733

> <r_i_glide_energy>
-68.2690114974976

> <r_i_glide_einternal>
8.84945392608643

> <i_i_glide_confnum>
142

> <i_i_glide_posenum>
204

> <r_i_glide_eff_state_penalty>
0

> <s_user_duplicate_titles>
CHEMBL1952_lig92

> <i_f3d_flags>
0

> <s_m_subgroup_title>
dock_pv

> <s_m_subgroupid>
dock_pv

> <b_m_subgroup_collapsed>
1

$$$$
CHEMBL1952_lig472
                    3D
 Schrodinger Suite 2021-1.
 24 26  0  0  1  0            999 V2000
   13.6538   17.4184   30.5569 C   0  0  0  0  0  0
   15.1186   15.8351   29.4685 C   0  0  0  0  0  0
   14.1278   16.7620   29.4680 O   0  0  0  0  0  0
   14.2643   17.0875   31.8851 C   0  0  0  0  0  0
   13.7954   17.6878   33.0559 C   0  0  0  0  0  0
   14.3402   17.3616   34.2901 C   0  0  0  0  0  0
   15.3844   16.4475   34.3894 C   0  0  0  0  0  0
   15.7925   15.5348   30.7701 C   0  0  0  0  0  0
   15.3457   16.1482   31.9809 C   0  0  0  0  0  0
   15.9483   15.8278   33.2360 C   0  0  0  0  0  0
   17.0680   14.9159   33.2484 C   0  0  0  0  0  0
   17.4792   14.3385   32.0382 C   0  0  0  0  0  0
   16.8534   14.6325   30.8349 C   0  0  0  0  0  0
   12.7472   18.2283   30.3711 O   0  0  0  0  0  0
   15.3908   15.3083   28.3929 O   0  0  0  0  0  0
   17.7910   14.5205   34.5164 C   0  0  0  0  0  0
   19.1391   14.3793   34.3650 O   0  0  0  0  0  0
   17.2186   14.3512   35.5909 O   0  0  0  0  0  0
   12.9914   18.4119   33.0224 H   0  0  0  0  0  0
   13.9503   17.8269   35.1846 H   0  0  0  0  0  0
   15.7660   16.2273   35.3723 H   0  0  0  0  0  0
   18.2879   13.6183   32.0076 H   0  0  0  0  0  0
   17.2069   14.1358   29.9429 H   0  0  0  0  0  0
   19.4082   14.5014   33.4524 H   0  0  0  0  0  0
  1  4  1  0  0  0
  1  3  1  0  0  0
  1 14  2  0  0  0
  2  8  1  0  0  0
  2  3  1  0  0  0
  2 15  2  0  0  0
  4  9  2  0  0  0
  4  5  1  0  0  0
  5  6  2  0  0  0
  5 19  1  0  0  0
  6  7  1  0  0  0
  6 20  1  0  0  0
  7 10  2  0  0  0
  7 21  1  0  0  0
  8  9  1  0  0  0
  8 13  2  0  0  0
  9 10  1  0  0  0
 10 11  1  0  0  0
 11 12  2  0  0  0
 11 16  1  0  0  0
 12 13  1  0  0  0
 12 22  1  0  0  0
 13 23  1  0  0  0
 16 17  1  0  0  0
 16 18  2  0  0  0
 17 24  1  0  0  0
M  END
> <s_m_entry_id>
41208

> <s_m_entry_name>
dock_pv.325

> <s_m_Source_Path>
/home/csk/Desktop/cluster/DUD-E-result/tysy

> <s_m_Source_File>
dock_pv.maegz

> <i_m_Source_File_Index>
325

> <chembl_id>
CHEMBL2323371

> <chembl_pref_name>
None

> <i_lp_mmshare_version>
53161

> <r_lp_tautomer_probability>
1

> <s_lp_Force_Field>
OPLS_2005

> <r_lp_Energy>
41.355082

> <b_lp_Chiralities_Consistent>
1

> <s_lp_Variant>
CHEMBL1952_lig472-1

> <s_i_glide_gridfile>
glide-grid_1syn

> <i_i_glide_lignum>
902

> <i_i_glide_rotatable_bonds>
2

> <r_i_docking_score>
-7.57504934545558

> <r_i_glide_ligand_efficiency>
-0.420836074747532

> <r_i_glide_ligand_efficiency_sa>
-1.10290252020465

> <r_i_glide_ligand_efficiency_ln>
-1.94712737415923

> <r_i_glide_gscore>
-7.57504934545558

> <r_i_glide_lipo>
-2.62925775402853

> <r_i_glide_hbond>
0

> <r_i_glide_metal>
0

> <r_i_glide_rewards>
-2.9276900899622

> <r_i_glide_evdw>
-37.0378761291504

> <r_i_glide_ecoul>
-1.10805130004883

> <r_i_glide_erotb>
0

> <r_i_glide_esite>
0

> <r_i_glide_emodel>
-55.688002540394

> <r_i_glide_energy>
-38.1459274291992

> <r_i_glide_einternal>
1.96427690982819

> <i_i_glide_confnum>
1

> <i_i_glide_posenum>
83

> <r_i_glide_eff_state_penalty>
0

> <s_user_duplicate_titles>
CHEMBL1952_lig472

> <i_f3d_flags>
0

> <s_m_subgroup_title>
dock_pv

> <s_m_subgroupid>
dock_pv

> <b_m_subgroup_collapsed>
1

$$$$
CHEMBL1952_lig292
                    3D
 Schrodinger Suite 2021-1.
 49 51  0  0  1  0            999 V2000
   14.5190   17.4958   31.5473 N   0  0  0  0  0  0
   14.3103   17.0280   30.2626 C   0  0  0  0  0  0
   14.9583   16.0067   29.8158 N   0  0  0  0  0  0
   15.3905   17.0188   32.4944 C   0  0  0  0  0  0
   16.1032   15.8399   31.9875 C   0  0  0  0  0  0
   15.8401   15.4291   30.6799 C   0  0  0  0  0  0
   16.6330   14.3577   30.3932 N   0  0  0  0  0  0
   17.3921   14.0822   31.5047 C   0  0  0  0  0  0
   17.0730   14.9704   32.5374 C   0  0  0  0  0  0
   17.6702   14.9874   33.9332 C   0  0  0  0  0  0
   16.8047   14.2275   34.9324 C   0  0  0  0  0  0
   15.7381   14.8688   35.5611 C   0  0  0  0  0  0
   14.8993   14.1647   36.4166 C   0  0  0  0  0  0
   15.1201   12.8019   36.6725 C   0  0  0  0  0  0
   16.2052   12.1684   36.0478 C   0  0  0  0  0  0
   17.0440   12.8763   35.1886 C   0  0  0  0  0  0
   15.5084   17.5821   33.5804 O   0  0  0  0  0  0
   13.3831   17.6998   29.4440 N   0  0  0  0  0  0
   14.2099   12.0124   37.5911 C   0  0  0  0  0  0
   14.2575   10.7818   37.6265 O   0  0  0  0  0  0
   13.3701   12.7248   38.3661 N   0  0  0  0  0  0
   12.3826   12.1691   39.3025 C   0  0  2  0  0  0
   11.0987   13.0279   39.3289 C   0  0  0  0  0  0
   13.0147   11.9370   40.7044 C   0  0  0  0  0  0
   13.6327   13.1896   41.3726 C   0  0  0  0  0  0
   13.8346   13.0282   42.8769 C   0  0  0  0  0  0
   13.3778   13.8053   43.7117 O   0  0  0  0  0  0
   14.5784   11.9321   43.1910 O   0  0  0  0  0  0
   10.6236   13.2103   38.0618 O   0  0  0  0  0  0
   10.5921   13.4551   40.3466 O   0  0  0  0  0  0
   13.9997   18.3070   31.8430 H   0  0  0  0  0  0
   16.6581   13.8662   29.5108 H   0  0  0  0  0  0
   18.1006   13.2634   31.4787 H   0  0  0  0  0  0
   17.8060   16.0109   34.2825 H   0  0  0  0  0  0
   18.6722   14.5550   33.9250 H   0  0  0  0  0  0
   15.5415   15.9139   35.3836 H   0  0  0  0  0  0
   14.0786   14.7024   36.8642 H   0  0  0  0  0  0
   16.4083   11.1208   36.2222 H   0  0  0  0  0  0
   17.8663   12.3686   34.7045 H   0  0  0  0  0  0
   13.3866   17.4904   28.4567 H   0  0  0  0  0  0
   13.2024   18.6775   29.6153 H   0  0  0  0  0  0
   13.4201   13.7309   38.3261 H   0  0  0  0  0  0
   12.0636   11.1938   38.9275 H   0  0  0  0  0  0
   13.7930   11.1778   40.6083 H   0  0  0  0  0  0
   12.2718   11.4864   41.3650 H   0  0  0  0  0  0
   12.9983   14.0626   41.2184 H   0  0  0  0  0  0
   14.5893   13.4223   40.9164 H   0  0  0  0  0  0
   14.7304   11.8500   44.1472 H   0  0  0  0  0  0
   11.1782   12.7891   37.4017 H   0  0  0  0  0  0
  1  2  1  0  0  0
  1  4  1  0  0  0
  1 31  1  0  0  0
  2  3  2  0  0  0
  2 18  1  0  0  0
  3  6  1  0  0  0
  4  5  1  0  0  0
  4 17  2  0  0  0
  5  6  2  0  0  0
  5  9  1  0  0  0
  6  7  1  0  0  0
  7  8  1  0  0  0
  7 32  1  0  0  0
  8  9  2  0  0  0
  8 33  1  0  0  0
  9 10  1  0  0  0
 10 11  1  0  0  0
 10 34  1  0  0  0
 10 35  1  0  0  0
 11 12  2  0  0  0
 11 16  1  0  0  0
 12 13  1  0  0  0
 12 36  1  0  0  0
 13 14  2  0  0  0
 13 37  1  0  0  0
 14 15  1  0  0  0
 14 19  1  0  0  0
 15 16  2  0  0  0
 15 38  1  0  0  0
 16 39  1  0  0  0
 18 40  1  0  0  0
 18 41  1  0  0  0
 19 20  2  0  0  0
 19 21  1  0  0  0
 21 22  1  0  0  0
 21 42  1  0  0  0
 22 23  1  0  0  0
 22 24  1  0  0  0
 22 43  1  0  0  0
 23 29  1  0  0  0
 23 30  2  0  0  0
 24 25  1  0  0  0
 24 44  1  0  0  0
 24 45  1  0  0  0
 25 26  1  0  0  0
 25 46  1  0  0  0
 25 47  1  0  0  0
 26 27  2  0  0  0
 26 28  1  0  0  0
 28 48  1  0  0  0
 29 49  1  0  0  0
M  END
> <s_m_entry_id>
41209

> <s_m_entry_name>
dock_pv.326

> <s_m_Source_Path>
/home/csk/Desktop/cluster/DUD-E-result/tysy

> <s_m_Source_File>
dock_pv.maegz

> <i_m_Source_File_Index>
326

> <chembl_id>
CHEMBL2426247

> <chembl_pref_name>
None

> <i_lp_mmshare_version>
53161

> <r_lp_tautomer_probability>
1

> <s_lp_Force_Field>
OPLS_2005

> <r_lp_Energy>
18.799987

> <b_lp_Chiralities_Consistent>
1

> <s_lp_Variant>
CHEMBL1952_lig292-1

> <s_i_glide_gridfile>
glide-grid_1syn

> <i_i_glide_lignum>
562

> <i_i_glide_rotatable_bonds>
11

> <r_i_docking_score>
-7.57056862090668

> <r_i_glide_ligand_efficiency>
-0.252352287363556

> <r_i_glide_ligand_efficiency_sa>
-0.784117229358871

> <r_i_glide_ligand_efficiency_ln>
-1.72011567862189

> <r_i_glide_gscore>
-7.57056862090668

> <r_i_glide_lipo>
-2.55788811697549

> <r_i_glide_hbond>
0

> <r_i_glide_metal>
0

> <r_i_glide_rewards>
-1.62184317776726

> <r_i_glide_evdw>
-52.2125015258789

> <r_i_glide_ecoul>
-12.0470533370972

> <r_i_glide_erotb>
1.03899267871804

> <r_i_glide_esite>
-0.0121469280234417

> <r_i_glide_emodel>
-93.2657910714382

> <r_i_glide_energy>
-64.2595548629761

> <r_i_glide_einternal>
4.75367736816406

> <i_i_glide_confnum>
5

> <i_i_glide_posenum>
207

> <r_i_glide_eff_state_penalty>
0

> <s_user_duplicate_titles>
CHEMBL1952_lig292

> <i_f3d_flags>
0

> <s_m_subgroup_title>
dock_pv

> <s_m_subgroupid>
dock_pv

> <b_m_subgroup_collapsed>
1

$$$$
CHEMBL1952_lig39
                    3D
 Schrodinger Suite 2021-1.
 38 41  0  0  1  0            999 V2000
   16.1414   15.2469   30.5046 C   0  0  0  0  0  0
   15.4084   16.2457   31.2586 C   0  0  0  0  0  0
   17.1054   14.4873   31.0703 N   0  0  0  0  0  0
   17.3556   14.6407   32.3825 C   0  0  0  0  0  0
   16.7137   15.5091   33.1959 N   0  0  0  0  0  0
   15.7455   16.2884   32.6491 C   0  0  0  0  0  0
   14.4233   17.1734   30.7662 C   0  0  0  0  0  0
   13.7298   18.0327   31.6902 C   0  0  0  0  0  0
   14.0657   17.9865   33.0619 C   0  0  0  0  0  0
   18.3437   13.7964   32.9050 N   0  0  0  0  0  0
   15.8402   15.0171   29.1960 O   0  0  0  0  0  0
   15.0681   17.1530   33.5248 C   0  0  0  0  0  0
   12.7281   18.9334   31.2128 C   0  0  0  0  0  0
   18.6965   13.7619   34.3247 C   0  0  0  0  0  0
   11.7221   20.0532   32.3901 Br  0  0  0  0  0  0
   14.1019   17.3256   29.3786 C   0  0  0  0  0  0
   17.6914   12.9347   35.1185 C   0  0  0  0  0  0
   13.1533   18.2403   28.9461 C   0  0  0  0  0  0
   12.4635   19.0228   29.8532 C   0  0  0  0  0  0
   16.5916   13.5486   35.7273 C   0  0  0  0  0  0
   17.8435   11.5467   35.1904 C   0  0  0  0  0  0
   16.8907   10.7744   35.8496 C   0  0  0  0  0  0
   15.6422   12.7758   36.3897 C   0  0  0  0  0  0
   15.7924   11.3923   36.4425 C   0  0  0  0  0  0
   13.5652   18.6362   33.7656 H   0  0  0  0  0  0
   18.8739   13.2194   32.2595 H   0  0  0  0  0  0
   16.3843   14.3007   28.8602 H   0  0  0  0  0  0
   15.3314   17.1579   34.5736 H   0  0  0  0  0  0
   18.7569   14.7711   34.7339 H   0  0  0  0  0  0
   19.6946   13.3299   34.4265 H   0  0  0  0  0  0
   14.5931   16.7789   28.5975 H   0  0  0  0  0  0
   12.9515   18.3419   27.8901 H   0  0  0  0  0  0
   11.7125   19.7142   29.4973 H   0  0  0  0  0  0
   16.4656   14.6208   35.6855 H   0  0  0  0  0  0
   18.6880   11.0668   34.7130 H   0  0  0  0  0  0
   16.9988    9.7022   35.8924 H   0  0  0  0  0  0
   14.7920   13.2495   36.8573 H   0  0  0  0  0  0
   15.0522   10.7945   36.9537 H   0  0  0  0  0  0
  1  2  1  0  0  0
  1  3  2  0  0  0
  1 11  1  0  0  0
  2  6  2  0  0  0
  2  7  1  0  0  0
  3  4  1  0  0  0
  4  5  2  0  0  0
  4 10  1  0  0  0
  5  6  1  0  0  0
  6 12  1  0  0  0
  7  8  2  0  0  0
  7 16  1  0  0  0
  8  9  1  0  0  0
  8 13  1  0  0  0
  9 12  2  0  0  0
  9 25  1  0  0  0
 10 14  1  0  0  0
 10 26  1  0  0  0
 11 27  1  0  0  0
 12 28  1  0  0  0
 13 15  1  0  0  0
 13 19  2  0  0  0
 14 17  1  0  0  0
 14 29  1  0  0  0
 14 30  1  0  0  0
 16 18  2  0  0  0
 16 31  1  0  0  0
 17 20  1  0  0  0
 17 21  2  0  0  0
 18 19  1  0  0  0
 18 32  1  0  0  0
 19 33  1  0  0  0
 20 23  2  0  0  0
 20 34  1  0  0  0
 21 22  1  0  0  0
 21 35  1  0  0  0
 22 24  2  0  0  0
 22 36  1  0  0  0
 23 24  1  0  0  0
 23 37  1  0  0  0
 24 38  1  0  0  0
M  END
> <s_m_entry_id>
41212

> <s_m_entry_name>
dock_pv.329

> <s_m_Source_Path>
/home/csk/Desktop/cluster/DUD-E-result/tysy

> <s_m_Source_File>
dock_pv.maegz

> <i_m_Source_File_Index>
329

> <chembl_id>
CHEMBL73314

> <chembl_pref_name>
None

> <i_lp_mmshare_version>
53161

> <r_lp_tautomer_probability>
1

> <s_lp_Force_Field>
OPLS_2005

> <r_lp_Energy>
19.024712

> <b_lp_Chiralities_Consistent>
1

> <s_lp_Variant>
CHEMBL1952_lig39-1

> <s_i_glide_gridfile>
glide-grid_1syn

> <i_i_glide_lignum>
53

> <i_i_glide_rotatable_bonds>
4

> <r_i_docking_score>
-7.56496423470091

> <r_i_glide_ligand_efficiency>
-0.315206843112538

> <r_i_glide_ligand_efficiency_sa>
-0.909213867110848

> <r_i_glide_ligand_efficiency_ln>
-1.81064307495313

> <r_i_glide_gscore>
-7.56496423470091

> <r_i_glide_lipo>
-3.88638005797422

> <r_i_glide_hbond>
-0.0633139721919834

> <r_i_glide_metal>
0

> <r_i_glide_rewards>
-1.12924023275461

> <r_i_glide_evdw>
-49.7273902893066

> <r_i_glide_ecoul>
-2.34504842758179

> <r_i_glide_erotb>
0.402508802371644

> <r_i_glide_esite>
-0.050411995549136

> <r_i_glide_emodel>
-75.6869260905246

> <r_i_glide_energy>
-52.0724387168884

> <r_i_glide_einternal>
1.25060677528381

> <i_i_glide_confnum>
3

> <i_i_glide_posenum>
120

> <r_i_glide_eff_state_penalty>
0

> <s_user_duplicate_titles>
CHEMBL1952_lig39

> <i_f3d_flags>
0

> <s_m_subgroup_title>
dock_pv

> <s_m_subgroupid>
dock_pv

> <b_m_subgroup_collapsed>
1

$$$$
CHEMBL1952_lig352
                    3D
 Schrodinger Suite 2021-1.
 56 59  0  0  1  0            999 V2000
   12.8999   12.0594   38.1564 S   0  0  0  0  0  0
   14.2010   17.9707   32.6116 C   0  0  0  0  0  0
   15.1838   16.8512   32.3952 C   0  0  0  0  0  0
   13.4752   18.2436   31.5068 N   0  0  0  0  0  0
   14.4336   16.7085   30.0701 N   0  0  0  0  0  0
   15.2594   16.2740   31.1243 C   0  0  0  0  0  0
   13.5956   17.6599   30.2801 C   0  0  0  0  0  0
   11.5521   11.7222   36.9932 C   0  0  0  0  0  0
   14.2755   12.5547   37.1218 C   0  0  0  0  0  0
   17.6516   13.6158   34.7598 N   0  0  0  0  0  0
   18.9920   11.5340   34.8882 C   0  0  0  0  0  0
   13.2725   10.7731   38.7581 O   0  0  0  0  0  0
   12.5627   13.1980   39.0186 O   0  0  0  0  0  0
   19.4045   10.6278   35.5909 C   0  0  0  0  0  0
   16.0187   16.4349   33.4273 C   0  0  0  0  0  0
   16.4916   13.2664   35.5241 C   0  0  0  0  0  0
   14.0721   18.6155   33.6428 O   0  0  0  0  0  0
   17.8850   15.0007   34.3276 C   0  0  0  0  0  0
   16.9500   15.4226   33.1969 C   0  0  0  0  0  0
   10.4260   12.5515   36.8018 C   0  0  0  0  0  0
   16.1922   15.2657   30.8879 C   0  0  0  0  0  0
   14.6797   13.8859   37.0405 C   0  0  0  0  0  0
   14.9501   11.5836   36.3919 C   0  0  0  0  0  0
   15.7779   14.2310   36.2526 C   0  0  0  0  0  0
   16.0248   11.9418   35.5911 C   0  0  0  0  0  0
   18.4680   12.6216   34.0452 C   0  0  0  0  0  0
   17.0392   14.8444   31.9196 C   0  0  0  0  0  0
   12.7074   18.1868   29.1854 C   0  0  0  0  0  0
   11.6719   10.5557   36.2246 C   0  0  0  0  0  0
   10.1949   13.8278   37.5910 C   0  0  0  0  0  0
    9.4679   12.1988   35.8439 C   0  0  0  0  0  0
   10.7192   10.2247   35.2649 C   0  0  0  0  0  0
    9.6159   11.0485   35.0729 C   0  0  0  0  0  0
   19.7678    9.8333   36.1989 H   0  0  0  0  0  0
   15.9464   16.9063   34.3932 H   0  0  0  0  0  0
   12.8285   19.0064   31.6242 H   0  0  0  0  0  0
   18.9052   15.1172   33.9569 H   0  0  0  0  0  0
   17.8355   15.6813   35.1740 H   0  0  0  0  0  0
   16.2629   14.8183   29.9078 H   0  0  0  0  0  0
   14.1731   14.6534   37.6063 H   0  0  0  0  0  0
   14.6504   10.5480   36.4396 H   0  0  0  0  0  0
   16.0776   15.2661   36.2504 H   0  0  0  0  0  0
   16.4795   11.1493   35.0232 H   0  0  0  0  0  0
   17.8844   12.1972   33.2333 H   0  0  0  0  0  0
   19.3457   13.0735   33.5794 H   0  0  0  0  0  0
   17.7684   14.0719   31.7195 H   0  0  0  0  0  0
   12.9921   17.7825   28.2129 H   0  0  0  0  0  0
   11.6648   17.9268   29.3706 H   0  0  0  0  0  0
   12.7734   19.2731   29.1176 H   0  0  0  0  0  0
   12.5132    9.8938   36.3628 H   0  0  0  0  0  0
    9.2957   14.3594   37.2785 H   0  0  0  0  0  0
   10.0973   13.6097   38.6544 H   0  0  0  0  0  0
   11.0379   14.5043   37.4564 H   0  0  0  0  0  0
    8.6008   12.8223   35.6833 H   0  0  0  0  0  0
   10.8361    9.3290   34.6718 H   0  0  0  0  0  0
    8.8738   10.7940   34.3300 H   0  0  0  0  0  0
  1  8  1  0  0  0
  1  9  1  0  0  0
  1 12  2  0  0  0
  1 13  2  0  0  0
  2 17  2  0  0  0
  2  3  1  0  0  0
  2  4  1  0  0  0
  3 15  1  0  0  0
  3  6  2  0  0  0
  4  7  1  0  0  0
  4 36  1  0  0  0
  5  6  1  0  0  0
  5  7  2  0  0  0
  6 21  1  0  0  0
  7 28  1  0  0  0
  8 20  1  0  0  0
  8 29  2  0  0  0
  9 22  1  0  0  0
  9 23  2  0  0  0
 10 16  1  0  0  0
 10 18  1  0  0  0
 10 26  1  0  0  0
 11 26  1  0  0  0
 11 14  3  0  0  0
 14 34  1  0  0  0
 15 35  1  0  0  0
 15 19  2  0  0  0
 16 25  2  0  0  0
 16 24  1  0  0  0
 18 37  1  0  0  0
 18 38  1  0  0  0
 18 19  1  0  0  0
 19 27  1  0  0  0
 20 30  1  0  0  0
 20 31  2  0  0  0
 21 27  2  0  0  0
 21 39  1  0  0  0
 22 24  2  0  0  0
 22 40  1  0  0  0
 23 25  1  0  0  0
 23 41  1  0  0  0
 24 42  1  0  0  0
 25 43  1  0  0  0
 26 44  1  0  0  0
 26 45  1  0  0  0
 27 46  1  0  0  0
 28 47  1  0  0  0
 28 48  1  0  0  0
 28 49  1  0  0  0
 29 32  1  0  0  0
 29 50  1  0  0  0
 30 51  1  0  0  0
 30 52  1  0  0  0
 30 53  1  0  0  0
 31 33  1  0  0  0
 31 54  1  0  0  0
 32 33  2  0  0  0
 32 55  1  0  0  0
 33 56  1  0  0  0
M  END
> <s_m_entry_id>
41213

> <s_m_entry_name>
dock_pv.330

> <s_m_Source_Path>
/home/csk/Desktop/cluster/DUD-E-result/tysy

> <s_m_Source_File>
dock_pv.maegz

> <i_m_Source_File_Index>
330

> <chembl_id>
CHEMBL159364

> <chembl_pref_name>
None

> <i_lp_mmshare_version>
53161

> <r_lp_tautomer_probability>
0.883938

> <s_lp_Force_Field>
OPLS_2005

> <r_lp_Energy>
26.214687

> <b_lp_Chiralities_Consistent>
1

> <s_lp_Variant>
CHEMBL1952_lig352-1

> <s_i_glide_gridfile>
glide-grid_1syn

> <i_i_glide_lignum>
653

> <i_i_glide_rotatable_bonds>
7

> <r_i_docking_score>
-7.55696421256845

> <r_i_glide_ligand_efficiency>
-0.228998915532377

> <r_i_glide_ligand_efficiency_sa>
-0.734521882245827

> <r_i_glide_ligand_efficiency_ln>
-1.68062971300861

> <r_i_glide_gscore>
-7.55696421256845

> <r_i_glide_lipo>
-3.94919632458033

> <r_i_glide_hbond>
0

> <r_i_glide_metal>
0

> <r_i_glide_rewards>
-0.839732882532467

> <r_i_glide_evdw>
-56.4663887023926

> <r_i_glide_ecoul>
-4.11330366134644

> <r_i_glide_erotb>
0.672279978865943

> <r_i_glide_esite>
0

> <r_i_glide_emodel>
-88.6204360780604

> <r_i_glide_energy>
-60.579692363739

> <r_i_glide_einternal>
2.78992414474487

> <i_i_glide_confnum>
43

> <i_i_glide_posenum>
207

> <r_i_glide_eff_state_penalty>
0

> <s_user_duplicate_titles>
CHEMBL1952_lig352,CHEMBL1952_lig352,267534

> <i_f3d_flags>
0

> <s_m_subgroup_title>
dock_pv

> <s_m_subgroupid>
dock_pv

> <b_m_subgroup_collapsed>
1

$$$$
CHEMBL1952_lig354
                    3D
 Schrodinger Suite 2021-1.
 52 55  0  0  1  0            999 V2000
   15.3865   15.9939   30.3740 C   0  0  0  0  0  0
   15.2706   16.1853   31.8817 C   0  0  0  0  0  0
   14.5276   16.7841   29.5963 N   0  0  0  0  0  0
   13.5248   17.7828   31.4780 N   0  0  0  0  0  0
   12.4217   11.1733   38.6382 S   0  0  2  0  0  0
   13.7838   11.8489   37.6080 C   0  0  0  0  0  0
   14.3134   17.0730   32.3875 C   0  0  0  0  0  0
   13.6908   17.5945   30.1207 C   0  0  0  0  0  0
   14.5812   11.0289   36.8005 C   0  0  0  0  0  0
   15.5693   11.5968   35.9909 C   0  0  0  0  0  0
   15.8261   12.9791   35.9819 C   0  0  0  0  0  0
   16.8786   13.5702   35.2063 N   0  0  0  0  0  0
   13.9811   13.2251   37.5778 C   0  0  0  0  0  0
   18.4926   11.6836   34.7945 C   0  0  0  0  0  0
   19.0746   10.6858   35.1899 C   0  0  0  0  0  0
   16.1179   15.4988   32.7661 C   0  0  0  0  0  0
   11.1969   12.0245   38.2974 O   0  0  0  0  0  0
   16.2072   15.1965   29.9265 O   0  0  0  0  0  0
   12.9708   11.7350   40.2910 C   0  0  0  0  0  0
   16.9761   15.0279   35.1223 C   0  0  0  0  0  0
   15.9814   15.6782   34.1501 C   0  0  0  0  0  0
   14.9896   13.7723   36.7910 C   0  0  0  0  0  0
   14.1669   17.2521   33.7565 C   0  0  0  0  0  0
   14.3719    9.3124   36.7684 Cl  0  0  0  0  0  0
   17.7895   12.8718   34.2774 C   0  0  0  0  0  0
   14.9922   16.5474   34.6326 C   0  0  0  0  0  0
   12.8131   18.4212   29.2111 C   0  0  0  0  0  0
   12.6478   13.0217   40.7247 C   0  0  0  0  0  0
   13.6861   10.8653   41.1166 C   0  0  0  0  0  0
   14.0949   11.2945   42.3802 C   0  0  0  0  0  0
   13.0684   13.4534   41.9798 C   0  0  0  0  0  0
   13.7964   12.5910   42.7966 C   0  0  0  0  0  0
   16.1273   10.9256   35.3603 H   0  0  0  0  0  0
   13.3534   13.8812   38.1594 H   0  0  0  0  0  0
   19.6192    9.8306   35.5173 H   0  0  0  0  0  0
   16.8863   14.8381   32.3859 H   0  0  0  0  0  0
   12.8565   18.4547   31.8173 H   0  0  0  0  0  0
   17.9737   15.3324   34.7996 H   0  0  0  0  0  0
   16.9022   15.4281   36.1290 H   0  0  0  0  0  0
   15.0925   14.8403   36.8447 H   0  0  0  0  0  0
   13.4334   17.9450   34.1416 H   0  0  0  0  0  0
   17.2437   12.6279   33.3698 H   0  0  0  0  0  0
   18.5992   13.5262   33.9509 H   0  0  0  0  0  0
   14.8882   16.7191   35.6921 H   0  0  0  0  0  0
   12.9989   18.2074   28.1565 H   0  0  0  0  0  0
   11.7563   18.2299   29.4052 H   0  0  0  0  0  0
   12.9919   19.4850   29.3636 H   0  0  0  0  0  0
   12.0749   13.6819   40.0892 H   0  0  0  0  0  0
   13.9243    9.8672   40.7797 H   0  0  0  0  0  0
   14.6519   10.6323   43.0287 H   0  0  0  0  0  0
   12.8295   14.4519   42.3141 H   0  0  0  0  0  0
   14.1322   12.9242   43.7685 H   0  0  0  0  0  0
  1 18  2  0  0  0
  1  2  1  0  0  0
  1  3  1  0  0  0
  2 16  2  0  0  0
  2  7  1  0  0  0
  3  8  2  0  0  0
  4  7  1  0  0  0
  4 37  1  0  0  0
  4  8  1  0  0  0
  5  6  1  0  0  0
  5 17  2  0  0  0
  5 19  1  0  0  0
  6 13  2  0  0  0
  6  9  1  0  0  0
  7 23  2  0  0  0
  8 27  1  0  0  0
  9 10  2  0  0  0
  9 24  1  0  0  0
 10 11  1  0  0  0
 10 33  1  0  0  0
 11 12  1  0  0  0
 11 22  2  0  0  0
 12 20  1  0  0  0
 12 25  1  0  0  0
 13 22  1  0  0  0
 13 34  1  0  0  0
 14 25  1  0  0  0
 14 15  3  0  0  0
 15 35  1  0  0  0
 16 36  1  0  0  0
 16 21  1  0  0  0
 19 28  2  0  0  0
 19 29  1  0  0  0
 20 38  1  0  0  0
 20 39  1  0  0  0
 20 21  1  0  0  0
 21 26  2  0  0  0
 22 40  1  0  0  0
 23 26  1  0  0  0
 23 41  1  0  0  0
 25 42  1  0  0  0
 25 43  1  0  0  0
 26 44  1  0  0  0
 27 45  1  0  0  0
 27 46  1  0  0  0
 27 47  1  0  0  0
 28 31  1  0  0  0
 28 48  1  0  0  0
 29 30  2  0  0  0
 29 49  1  0  0  0
 30 32  1  0  0  0
 30 50  1  0  0  0
 31 32  2  0  0  0
 31 51  1  0  0  0
 32 52  1  0  0  0
M  END
> <s_m_entry_id>
41214

> <s_m_entry_name>
dock_pv.331

> <s_m_Source_Path>
/home/csk/Desktop/cluster/DUD-E-result/tysy

> <s_m_Source_File>
dock_pv.maegz

> <i_m_Source_File_Index>
331

> <chembl_id>
CHEMBL160215

> <chembl_pref_name>
None

> <i_lp_mmshare_version>
53161

> <r_lp_tautomer_probability>
0.116051

> <s_lp_Force_Field>
OPLS_2005

> <r_lp_Energy>
21.91972

> <b_lp_Chiralities_Consistent>
1

> <s_lp_Variant>
CHEMBL1952_lig354-3

> <s_i_glide_gridfile>
glide-grid_1syn

> <i_i_glide_lignum>
661

> <i_i_glide_rotatable_bonds>
7

> <r_i_docking_score>
-7.53963858438404

> <r_i_glide_ligand_efficiency>
-0.235613705762001

> <r_i_glide_ligand_efficiency_sa>
-0.748026887905299

> <r_i_glide_ligand_efficiency_ln>
-1.68833060182918

> <r_i_glide_gscore>
-7.53963858438404

> <r_i_glide_lipo>
-3.81349712604292

> <r_i_glide_hbond>
0

> <r_i_glide_metal>
0

> <r_i_glide_rewards>
-0.940220057484418

> <r_i_glide_evdw>
-59.4193496704102

> <r_i_glide_ecoul>
-3.16367745399475

> <r_i_glide_erotb>
0.660613839158637

> <r_i_glide_esite>
-0.0010161383956191

> <r_i_glide_emodel>
-89.1499510776766

> <r_i_glide_energy>
-62.5830271244049

> <r_i_glide_einternal>
3.58583116531372

> <i_i_glide_confnum>
15

> <i_i_glide_posenum>
38

> <r_i_glide_eff_state_penalty>
0

> <s_user_duplicate_titles>
CHEMBL1952_lig354,CHEMBL1952_lig354,266914

> <i_f3d_flags>
0

> <s_m_subgroup_title>
dock_pv

> <s_m_subgroupid>
dock_pv

> <b_m_subgroup_collapsed>
1

$$$$
CHEMBL1952_lig112
                    3D
 Schrodinger Suite 2021-1.
 55 57  0  0  1  0            999 V2000
   14.4594   16.3213   30.1460 N   0  0  0  0  0  0
   13.5466   17.9210   31.7049 N   0  0  0  0  0  0
   15.4941   16.6302   32.3296 C   0  0  0  0  0  0
   15.4120   15.9907   31.0586 C   0  0  0  0  0  0
   14.4987   17.6094   32.6103 C   0  0  0  0  0  0
   13.5835   17.2764   30.5226 C   0  0  0  0  0  0
   15.4237   10.0775   36.7636 C   0  0  0  0  0  0
   16.2983   15.0277   30.6814 N   0  0  0  0  0  0
   16.5573   16.2565   33.1908 C   0  0  0  0  0  0
   14.1328   10.3923   36.5762 N   0  0  0  0  0  0
   17.4901   15.2862   32.7977 C   0  0  0  0  0  0
   12.7771    8.4104   35.9894 C   0  0  0  0  0  0
   18.5978   14.9504   33.6253 N   0  0  0  0  0  0
   12.9886    9.5791   36.9862 C   0  0  2  0  0  0
   16.4001   11.0035   36.0875 C   0  0  0  0  0  0
    9.6471   11.0511   38.4338 C   0  0  0  0  0  0
   14.5553   18.2303   33.8287 O   0  0  0  0  0  0
   17.2963   14.6932   31.5425 C   0  0  0  0  0  0
   15.7920    9.0868   37.3935 O   0  0  0  0  0  0
   19.0158   13.5453   33.7554 C   0  0  0  0  0  0
   13.4261    8.2299   34.9786 O   0  0  0  0  0  0
   12.6345   17.6536   29.5925 N   0  0  0  0  0  0
    9.6927   11.4665   39.5911 O   0  0  0  0  0  0
   11.7763   10.5354   37.1487 C   0  0  0  0  0  0
   16.1255   12.3716   35.9924 C   0  0  0  0  0  0
   17.5728   10.4987   35.5105 C   0  0  0  0  0  0
   10.5627    9.9529   37.9015 C   0  0  0  0  0  0
   18.1120   12.6900   34.6466 C   0  0  0  0  0  0
   11.7660    7.6001   36.3985 O   0  0  0  0  0  0
    8.7960   11.5296   37.4812 O   0  0  0  0  0  0
   18.4213   11.3377   34.7923 C   0  0  0  0  0  0
   16.9768   13.2046   35.2830 C   0  0  0  0  0  0
   18.9924   15.8355   34.7181 C   0  0  0  0  0  0
   16.6224   16.7373   34.1519 H   0  0  0  0  0  0
   13.9236   11.1892   35.9962 H   0  0  0  0  0  0
   13.2240    9.1412   37.9587 H   0  0  0  0  0  0
   13.8579   18.8887   33.9065 H   0  0  0  0  0  0
   17.9870   13.9515   31.1692 H   0  0  0  0  0  0
   20.0310   13.5008   34.1567 H   0  0  0  0  0  0
   19.0711   13.0598   32.7856 H   0  0  0  0  0  0
   12.0357   18.4317   29.8309 H   0  0  0  0  0  0
   12.7765   17.3684   28.6394 H   0  0  0  0  0  0
   11.4541   10.8896   36.1662 H   0  0  0  0  0  0
   12.1059   11.4341   37.6766 H   0  0  0  0  0  0
   15.2480   12.8052   36.4491 H   0  0  0  0  0  0
   17.8144    9.4462   35.5608 H   0  0  0  0  0  0
   10.9099    9.3769   38.7600 H   0  0  0  0  0  0
    9.9950    9.2628   37.2777 H   0  0  0  0  0  0
   11.6242    6.9378   35.7151 H   0  0  0  0  0  0
    8.9002   11.1033   36.6290 H   0  0  0  0  0  0
   19.3024   10.9280   34.3142 H   0  0  0  0  0  0
   16.7086   14.2446   35.2069 H   0  0  0  0  0  0
   18.9931   16.8798   34.3984 H   0  0  0  0  0  0
   18.3088   15.7494   35.5613 H   0  0  0  0  0  0
   19.9944   15.5995   35.0781 H   0  0  0  0  0  0
  1  4  2  0  0  0
  1  6  1  0  0  0
  2  6  2  0  0  0
  2  5  1  0  0  0
  3  4  1  0  0  0
  3  9  1  0  0  0
  3  5  2  0  0  0
  4  8  1  0  0  0
  5 17  1  0  0  0
  6 22  1  0  0  0
  7 15  1  0  0  0
  7 10  1  0  0  0
  7 19  2  0  0  0
  8 18  2  0  0  0
  9 11  2  0  0  0
  9 34  1  0  0  0
 10 14  1  0  0  0
 10 35  1  0  0  0
 11 18  1  0  0  0
 11 13  1  0  0  0
 12 14  1  0  0  0
 12 21  2  0  0  0
 12 29  1  0  0  0
 13 20  1  0  0  0
 13 33  1  0  0  0
 14 24  1  0  0  0
 14 36  1  0  0  0
 15 25  1  0  0  0
 15 26  2  0  0  0
 16 27  1  0  0  0
 16 23  2  0  0  0
 16 30  1  0  0  0
 17 37  1  0  0  0
 18 38  1  0  0  0
 20 28  1  0  0  0
 20 39  1  0  0  0
 20 40  1  0  0  0
 22 41  1  0  0  0
 22 42  1  0  0  0
 24 27  1  0  0  0
 24 43  1  0  0  0
 24 44  1  0  0  0
 25 32  2  0  0  0
 25 45  1  0  0  0
 26 31  1  0  0  0
 26 46  1  0  0  0
 27 47  1  0  0  0
 27 48  1  0  0  0
 28 31  2  0  0  0
 28 32  1  0  0  0
 29 49  1  0  0  0
 30 50  1  0  0  0
 31 51  1  0  0  0
 32 52  1  0  0  0
 33 53  1  0  0  0
 33 54  1  0  0  0
 33 55  1  0  0  0
M  END
> <s_m_entry_id>
41216

> <s_m_entry_name>
dock_pv.333

> <s_m_Source_Path>
/home/csk/Desktop/cluster/DUD-E-result/tysy

> <s_m_Source_File>
dock_pv.maegz

> <i_m_Source_File_Index>
333

> <chembl_id>
CHEMBL156551

> <chembl_pref_name>
None

> <i_lp_mmshare_version>
53161

> <r_lp_tautomer_probability>
1

> <s_lp_Force_Field>
OPLS_2005

> <r_lp_Energy>
10.158231

> <b_lp_Chiralities_Consistent>
1

> <s_lp_Variant>
CHEMBL1952_lig112-2

> <s_i_glide_gridfile>
glide-grid_1syn

> <i_i_glide_lignum>
287

> <i_i_glide_rotatable_bonds>
13

> <r_i_docking_score>
-7.53009725176832

> <r_i_glide_ligand_efficiency>
-0.228184765205101

> <r_i_glide_ligand_efficiency_sa>
-0.731910467124354

> <r_i_glide_ligand_efficiency_ln>
-1.67465464003634

> <r_i_glide_gscore>
-7.53009725176832

> <r_i_glide_lipo>
-2.5784814670227

> <r_i_glide_hbond>
-0.503510206792563

> <r_i_glide_metal>
0

> <r_i_glide_rewards>
-1.23060236452769

> <r_i_glide_evdw>
-51.7567176818848

> <r_i_glide_ecoul>
-10.6610059738159

> <r_i_glide_erotb>
0.972393325174667

> <r_i_glide_esite>
-0.00290975843340679

> <r_i_glide_emodel>
-85.1257958346401

> <r_i_glide_energy>
-62.4177236557007

> <r_i_glide_einternal>
8.69660949707031

> <i_i_glide_confnum>
95

> <i_i_glide_posenum>
330

> <r_i_glide_eff_state_penalty>
0

> <s_user_duplicate_titles>
CHEMBL1952_lig112

> <i_f3d_flags>
0

> <s_m_subgroup_title>
dock_pv

> <s_m_subgroupid>
dock_pv

> <b_m_subgroup_collapsed>
1

$$$$
CHEMBL1952_lig262
                    3D
 Schrodinger Suite 2021-1.
 56 58  0  0  1  0            999 V2000
   13.4597   18.0988   31.7152 N   0  0  0  0  0  0
   13.5349   17.5861   30.4497 C   0  0  0  0  0  0
   14.3939   16.6798   30.1477 N   0  0  0  0  0  0
   14.2182   17.7522   32.7805 C   0  0  0  0  0  0
   14.0379   18.2281   33.8940 O   0  0  0  0  0  0
   15.2580   16.7188   32.4371 C   0  0  0  0  0  0
   15.2787   16.2083   31.1353 C   0  0  0  0  0  0
   16.2082   15.2232   30.8027 C   0  0  0  0  0  0
   17.1086   14.7571   31.7695 C   0  0  0  0  0  0
   17.0850   15.2797   33.0726 C   0  0  0  0  0  0
   16.1579   16.2702   33.3986 C   0  0  0  0  0  0
   18.0783   14.8077   34.1317 C   0  0  0  0  0  0
   17.8429   13.4108   34.5158 N   0  0  0  0  0  0
   16.7750   13.0248   35.3708 C   0  0  0  0  0  0
   16.4922   11.6743   35.6305 C   0  0  0  0  0  0
   15.4098   11.3130   36.4330 C   0  0  0  0  0  0
   14.6083   12.3176   36.9916 C   0  0  0  0  0  0
   14.8754   13.6358   36.7721 N   0  0  0  0  0  0
   15.9328   13.9639   35.9888 C   0  0  0  0  0  0
   13.4525   11.9500   37.8964 C   0  0  0  0  0  0
   13.2514   10.7742   38.2074 O   0  0  0  0  0  0
   12.6871   12.9591   38.3592 N   0  0  0  0  0  0
   11.5897   12.8053   39.3330 C   0  0  1  0  0  0
   12.0478   13.3301   40.7255 C   0  0  0  0  0  0
   10.2461   13.4131   38.8640 C   0  0  0  0  0  0
   10.1379   13.3850   37.5037 O   0  0  0  0  0  0
    9.4005   13.8283   39.6295 O   0  0  0  0  0  0
   13.3591   12.6863   41.2283 C   0  0  0  0  0  0
   13.7038   13.0066   42.6814 C   0  0  0  0  0  0
   14.5870   12.1049   43.1902 O   0  0  0  0  0  0
   13.2304   13.9401   43.3237 O   0  0  0  0  0  0
   12.5906   18.1298   29.4067 C   0  0  0  0  0  0
   18.7439   12.4031   33.9564 C   0  0  0  0  0  0
   12.7781   18.8120   31.9153 H   0  0  0  0  0  0
   16.2280   14.8232   29.8008 H   0  0  0  0  0  0
   17.8276   13.9939   31.5058 H   0  0  0  0  0  0
   16.1318   16.6916   34.3902 H   0  0  0  0  0  0
   18.0617   15.4499   35.0129 H   0  0  0  0  0  0
   19.0818   14.9231   33.7174 H   0  0  0  0  0  0
   17.0952   10.8849   35.2082 H   0  0  0  0  0  0
   15.2102   10.2674   36.6157 H   0  0  0  0  0  0
   16.0870   15.0237   35.8765 H   0  0  0  0  0  0
   12.9153   13.9025   38.0800 H   0  0  0  0  0  0
   11.3603   11.7447   39.4516 H   0  0  0  0  0  0
   11.2579   13.1588   41.4579 H   0  0  0  0  0  0
   12.1891   14.4125   40.6831 H   0  0  0  0  0  0
   10.9191   13.0012   37.0983 H   0  0  0  0  0  0
   14.1935   13.0061   40.6064 H   0  0  0  0  0  0
   13.2913   11.6026   41.1256 H   0  0  0  0  0  0
   14.7794   12.2280   44.1328 H   0  0  0  0  0  0
   13.0986   18.8405   28.7550 H   0  0  0  0  0  0
   12.2010   17.3228   28.7910 H   0  0  0  0  0  0
   11.7347   18.6366   29.8518 H   0  0  0  0  0  0
   18.1923   11.5939   33.4809 H   0  0  0  0  0  0
   19.3907   12.8302   33.1911 H   0  0  0  0  0  0
   19.3759   11.9691   34.7339 H   0  0  0  0  0  0
  1  2  1  0  0  0
  1  4  1  0  0  0
  1 34  1  0  0  0
  2 32  1  0  0  0
  2  3  2  0  0  0
  3  7  1  0  0  0
  4  6  1  0  0  0
  4  5  2  0  0  0
  6 11  1  0  0  0
  6  7  2  0  0  0
  7  8  1  0  0  0
  8  9  2  0  0  0
  8 35  1  0  0  0
  9 10  1  0  0  0
  9 36  1  0  0  0
 10 11  2  0  0  0
 10 12  1  0  0  0
 11 37  1  0  0  0
 12 13  1  0  0  0
 12 38  1  0  0  0
 12 39  1  0  0  0
 13 14  1  0  0  0
 13 33  1  0  0  0
 14 19  1  0  0  0
 14 15  2  0  0  0
 15 16  1  0  0  0
 15 40  1  0  0  0
 16 17  2  0  0  0
 16 41  1  0  0  0
 17 18  1  0  0  0
 17 20  1  0  0  0
 18 19  2  0  0  0
 19 42  1  0  0  0
 20 21  2  0  0  0
 20 22  1  0  0  0
 22 23  1  0  0  0
 22 43  1  0  0  0
 23 24  1  0  0  0
 23 25  1  0  0  0
 23 44  1  0  0  0
 24 28  1  0  0  0
 24 45  1  0  0  0
 24 46  1  0  0  0
 25 26  1  0  0  0
 25 27  2  0  0  0
 26 47  1  0  0  0
 28 29  1  0  0  0
 28 48  1  0  0  0
 28 49  1  0  0  0
 29 30  1  0  0  0
 29 31  2  0  0  0
 30 50  1  0  0  0
 32 51  1  0  0  0
 32 52  1  0  0  0
 32 53  1  0  0  0
 33 54  1  0  0  0
 33 55  1  0  0  0
 33 56  1  0  0  0
M  END
> <s_m_entry_id>
41219

> <s_m_entry_name>
dock_pv.336

> <s_m_Source_Path>
/home/csk/Desktop/cluster/DUD-E-result/tysy

> <s_m_Source_File>
dock_pv.maegz

> <i_m_Source_File_Index>
336

> <chembl_id>
CHEMBL295866

> <chembl_pref_name>
None

> <i_lp_mmshare_version>
53161

> <r_lp_tautomer_probability>
0.883938

> <s_lp_Force_Field>
OPLS_2005

> <r_lp_Energy>
26.101723

> <b_lp_Chiralities_Consistent>
1

> <s_lp_Variant>
CHEMBL1952_lig262-1

> <s_i_glide_gridfile>
glide-grid_1syn

> <i_i_glide_lignum>
520

> <i_i_glide_rotatable_bonds>
12

> <r_i_docking_score>
-7.52337918595403

> <r_i_glide_ligand_efficiency>
-0.227981187453152

> <r_i_glide_ligand_efficiency_sa>
-0.731257484496917

> <r_i_glide_ligand_efficiency_ln>
-1.67316057698352

> <r_i_glide_gscore>
-7.52337918595403

> <r_i_glide_lipo>
-3.31844264144573

> <r_i_glide_hbond>
0

> <r_i_glide_metal>
0

> <r_i_glide_rewards>
-0.971919105649329

> <r_i_glide_evdw>
-57.8263854980469

> <r_i_glide_ecoul>
-8.78633403778076

> <r_i_glide_erotb>
0.976251941710487

> <r_i_glide_esite>
0

> <r_i_glide_emodel>
-94.78044391543

> <r_i_glide_energy>
-66.6127195358276

> <r_i_glide_einternal>
6.39676856994629

> <i_i_glide_confnum>
12

> <i_i_glide_posenum>
279

> <r_i_glide_eff_state_penalty>
0

> <s_user_duplicate_titles>
CHEMBL1952_lig262,CHEMBL1952_lig262,62072

> <i_f3d_flags>
0

> <s_m_subgroup_title>
dock_pv

> <s_m_subgroupid>
dock_pv

> <b_m_subgroup_collapsed>
1

$$$$
CHEMBL1952_lig223
                    3D
 Schrodinger Suite 2021-1.
 57 59  0  0  1  0            999 V2000
   13.8714   17.7533   31.1086 N   0  0  0  0  0  0
   14.0311   17.1399   30.0008 C   0  0  0  0  0  0
   14.8934   16.0764   29.8058 N   0  0  0  0  0  0
   14.6048   17.4267   32.2546 C   0  0  0  0  0  0
   14.5119   17.9921   33.3424 O   0  0  0  0  0  0
   15.5970   16.2824   32.0897 C   0  0  0  0  0  0
   15.6999   15.6273   30.8569 C   0  0  0  0  0  0
   16.5969   14.5774   30.6887 C   0  0  0  0  0  0
   17.4065   14.1795   31.7573 C   0  0  0  0  0  0
   17.3228   14.8364   32.9925 C   0  0  0  0  0  0
   16.4228   15.8954   33.1511 C   0  0  0  0  0  0
   18.2714   14.4706   34.1304 C   0  0  0  0  0  0
   18.0354   13.1428   34.7246 N   0  0  0  0  0  0
   16.8439   12.7698   35.4133 C   0  0  0  0  0  0
   16.5112   11.4143   35.5911 C   0  0  0  0  0  0
   15.4174   11.0214   36.3615 C   0  0  0  0  0  0
   14.6099   11.9709   36.9987 C   0  0  0  0  0  0
   14.9104   13.3248   36.7973 C   0  0  0  0  0  0
   16.0112   13.7134   36.0398 C   0  0  0  0  0  0
   13.5117   11.5232   37.9413 C   0  0  0  0  0  0
   13.3408   10.3268   38.1859 O   0  0  0  0  0  0
   12.7914   12.4923   38.5390 N   0  0  0  0  0  0
   11.8023   12.2717   39.5991 C   0  0  1  0  0  0
   12.5321   11.9955   40.9435 C   0  0  0  0  0  0
   10.7780   13.4249   39.6802 C   0  0  0  0  0  0
   10.1329   13.5762   38.4881 O   0  0  0  0  0  0
   10.5730   14.0794   40.6835 O   0  0  0  0  0  0
   13.5247   13.0939   41.3973 C   0  0  0  0  0  0
   13.8281   13.0078   42.8866 C   0  0  0  0  0  0
   14.5874   11.9202   43.1910 O   0  0  0  0  0  0
   13.4022   13.8069   43.7169 O   0  0  0  0  0  0
   13.1974   17.5815   28.8221 C   0  0  0  0  0  0
   16.2750   15.0291   35.9906 F   0  0  0  0  0  0
   19.0776   12.1453   34.5007 C   0  0  0  0  0  0
   14.9550   15.6235   28.9094 H   0  0  0  0  0  0
   16.6770   14.0710   29.7386 H   0  0  0  0  0  0
   18.1168   13.3741   31.6204 H   0  0  0  0  0  0
   16.3771   16.4265   34.0903 H   0  0  0  0  0  0
   18.2879   15.2384   34.9036 H   0  0  0  0  0  0
   19.2761   14.5087   33.7056 H   0  0  0  0  0  0
   17.1077   10.6362   35.1393 H   0  0  0  0  0  0
   15.2244    9.9642   36.4822 H   0  0  0  0  0  0
   14.3406   14.1109   37.2701 H   0  0  0  0  0  0
   12.9190   13.4501   38.2504 H   0  0  0  0  0  0
   11.2211   11.3836   39.3408 H   0  0  0  0  0  0
   13.0785   11.0539   40.8602 H   0  0  0  0  0  0
   11.7920   11.8090   41.7176 H   0  0  0  0  0  0
    9.4961   14.2951   38.5200 H   0  0  0  0  0  0
   13.1212   14.0873   41.2049 H   0  0  0  0  0  0
   14.4517   13.0280   40.8308 H   0  0  0  0  0  0
   14.7708   11.8514   44.1431 H   0  0  0  0  0  0
   12.9511   18.6427   28.8850 H   0  0  0  0  0  0
   13.7179   17.4271   27.8763 H   0  0  0  0  0  0
   12.2583   17.0314   28.7960 H   0  0  0  0  0  0
   19.1664   11.4451   35.3317 H   0  0  0  0  0  0
   18.8762   11.5766   33.5920 H   0  0  0  0  0  0
   20.0494   12.6278   34.3915 H   0  0  0  0  0  0
  1  2  2  0  0  0
  1  4  1  0  0  0
  2  3  1  0  0  0
  2 32  1  0  0  0
  3  7  1  0  0  0
  3 35  1  0  0  0
  4  5  2  0  0  0
  4  6  1  0  0  0
  6 11  1  0  0  0
  6  7  2  0  0  0
  7  8  1  0  0  0
  8  9  2  0  0  0
  8 36  1  0  0  0
  9 10  1  0  0  0
  9 37  1  0  0  0
 10 11  2  0  0  0
 10 12  1  0  0  0
 11 38  1  0  0  0
 12 13  1  0  0  0
 12 39  1  0  0  0
 12 40  1  0  0  0
 13 14  1  0  0  0
 13 34  1  0  0  0
 14 19  1  0  0  0
 14 15  2  0  0  0
 15 16  1  0  0  0
 15 41  1  0  0  0
 16 17  2  0  0  0
 16 42  1  0  0  0
 17 18  1  0  0  0
 17 20  1  0  0  0
 18 19  2  0  0  0
 18 43  1  0  0  0
 19 33  1  0  0  0
 20 21  2  0  0  0
 20 22  1  0  0  0
 22 23  1  0  0  0
 22 44  1  0  0  0
 23 24  1  0  0  0
 23 25  1  0  0  0
 23 45  1  0  0  0
 24 28  1  0  0  0
 24 46  1  0  0  0
 24 47  1  0  0  0
 25 26  1  0  0  0
 25 27  2  0  0  0
 26 48  1  0  0  0
 28 29  1  0  0  0
 28 49  1  0  0  0
 28 50  1  0  0  0
 29 30  1  0  0  0
 29 31  2  0  0  0
 30 51  1  0  0  0
 32 52  1  0  0  0
 32 53  1  0  0  0
 32 54  1  0  0  0
 34 55  1  0  0  0
 34 56  1  0  0  0
 34 57  1  0  0  0
M  END
> <s_m_entry_id>
41220

> <s_m_entry_name>
dock_pv.337

> <s_m_Source_Path>
/home/csk/Desktop/cluster/DUD-E-result/tysy

> <s_m_Source_File>
dock_pv.maegz

> <i_m_Source_File_Index>
337

> <chembl_id>
CHEMBL73971

> <chembl_pref_name>
None

> <i_lp_mmshare_version>
53161

> <r_lp_tautomer_probability>
0.116051

> <s_lp_Force_Field>
OPLS_2005

> <r_lp_Energy>
21.577905

> <b_lp_Chiralities_Consistent>
1

> <s_lp_Variant>
CHEMBL1952_lig223-2

> <s_i_glide_gridfile>
glide-grid_1syn

> <i_i_glide_lignum>
443

> <i_i_glide_rotatable_bonds>
12

> <r_i_docking_score>
-7.52299654346239

> <r_i_glide_ligand_efficiency>
-0.221264604219482

> <r_i_glide_ligand_efficiency_sa>
-0.716811422191847

> <r_i_glide_ligand_efficiency_ln>
-1.6620409493564

> <r_i_glide_gscore>
-7.52299654346239

> <r_i_glide_lipo>
-3.28676251091787

> <r_i_glide_hbond>
0

> <r_i_glide_metal>
0

> <r_i_glide_rewards>
-1.04565749893959

> <r_i_glide_evdw>
-56.3294296264648

> <r_i_glide_ecoul>
-8.419921875

> <r_i_glide_erotb>
0.912923702520933

> <r_i_glide_esite>
-0.0240404735526198

> <r_i_glide_emodel>
-86.5174952237035

> <r_i_glide_energy>
-64.7493515014648

> <r_i_glide_einternal>
10.2003803253174

> <i_i_glide_confnum>
79

> <i_i_glide_posenum>
278

> <r_i_glide_eff_state_penalty>
0

> <s_user_duplicate_titles>
CHEMBL1952_lig223

> <i_f3d_flags>
0

> <s_m_subgroup_title>
dock_pv

> <s_m_subgroupid>
dock_pv

> <b_m_subgroup_collapsed>
1

$$$$
CHEMBL1952_lig104
                    3D
 Schrodinger Suite 2021-1.
 61 63  0  0  1  0            999 V2000
   14.1889   17.4455   31.8515 C   0  0  0  0  0  0
   15.2753   16.4028   31.7374 C   0  0  0  0  0  0
   13.3975   17.5252   30.7603 N   0  0  0  0  0  0
   15.5608   15.7795   30.5138 C   0  0  0  0  0  0
   14.7380   16.0261   29.4037 N   0  0  0  0  0  0
   13.6460   12.4971   38.2992 C   0  0  0  0  0  0
   12.7335   13.4267   38.6279 N   0  0  0  0  0  0
   13.3827   16.5170   29.6801 C   0  0  1  0  0  0
   12.6254   13.7056   41.1486 C   0  0  0  0  0  0
   17.8008   13.6097   34.5201 N   0  0  0  0  0  0
   18.9920   11.3985   34.7911 C   0  0  0  0  0  0
   11.8756   13.3938   39.8239 C   0  0  2  0  0  0
   19.2166   10.3680   35.4027 C   0  0  0  0  0  0
   16.0874   16.1429   32.8492 C   0  0  0  0  0  0
   14.5595   12.8323   37.1545 C   0  0  0  0  0  0
    8.8771   13.1713   38.8033 C   0  0  0  0  0  0
   16.6424   13.3591   35.3205 C   0  0  0  0  0  0
   14.0428   18.2238   32.7911 O   0  0  0  0  0  0
   18.0327   14.9533   33.9607 C   0  0  0  0  0  0
   13.7924   11.4440   38.9208 O   0  0  0  0  0  0
   17.1392   15.2242   32.7565 C   0  0  0  0  0  0
   12.1921   13.4283   42.2436 O   0  0  0  0  0  0
   16.5923   14.8474   30.4247 C   0  0  0  0  0  0
    7.9343   13.1497   39.5904 O   0  0  0  0  0  0
   14.9562   14.1483   36.8901 C   0  0  0  0  0  0
   15.1202   11.7967   36.4129 C   0  0  0  0  0  0
   15.9876   14.4028   35.9911 C   0  0  0  0  0  0
   16.1284   12.0647   35.5025 C   0  0  0  0  0  0
   10.9569   12.1351   39.8569 C   0  0  0  0  0  0
    9.9269   12.0626   38.7057 C   0  0  0  0  0  0
   18.6569   12.5553   33.9357 C   0  0  0  0  0  0
   13.7914   14.3809   40.9279 O   0  0  0  0  0  0
   17.3896   14.5825   31.5372 C   0  0  0  0  0  0
    9.1550   14.2280   37.9910 O   0  0  0  0  0  0
   12.4693   15.3061   29.9532 C   0  0  0  0  0  0
   12.6753   18.2290   30.7800 H   0  0  0  0  0  0
   14.8711   15.5466   28.5247 H   0  0  0  0  0  0
   12.5832   14.1953   37.9905 H   0  0  0  0  0  0
   13.0413   17.0276   28.7774 H   0  0  0  0  0  0
   11.1968   14.2280   39.7342 H   0  0  0  0  0  0
   19.3891    9.4318   35.8790 H   0  0  0  0  0  0
   15.9028   16.6488   33.7876 H   0  0  0  0  0  0
   19.0658   15.0439   33.6215 H   0  0  0  0  0  0
   17.9357   15.7367   34.7104 H   0  0  0  0  0  0
   16.7868   14.3349   29.4943 H   0  0  0  0  0  0
   14.5508   14.9853   37.4390 H   0  0  0  0  0  0
   14.8121   10.7713   36.5666 H   0  0  0  0  0  0
   16.3025   15.4278   35.8956 H   0  0  0  0  0  0
   16.4989   11.2226   34.9489 H   0  0  0  0  0  0
   11.5376   11.2139   39.8627 H   0  0  0  0  0  0
   10.4058   12.1089   40.7910 H   0  0  0  0  0  0
   10.4193   12.0920   37.7326 H   0  0  0  0  0  0
    9.4009   11.1084   38.7506 H   0  0  0  0  0  0
   18.1916   12.1541   33.0366 H   0  0  0  0  0  0
   19.6139   12.9794   33.6259 H   0  0  0  0  0  0
   13.9678   14.4377   39.9853 H   0  0  0  0  0  0
   18.2053   13.8784   31.4447 H   0  0  0  0  0  0
    8.5346   14.9551   38.1424 H   0  0  0  0  0  0
   12.7090   14.8395   30.9076 H   0  0  0  0  0  0
   11.4221   15.6077   29.9912 H   0  0  0  0  0  0
   12.5641   14.5255   29.1965 H   0  0  0  0  0  0
  1  2  1  0  0  0
  1  3  1  0  0  0
  1 18  2  0  0  0
  2  4  2  0  0  0
  2 14  1  0  0  0
  3  8  1  0  0  0
  3 36  1  0  0  0
  4 23  1  0  0  0
  4  5  1  0  0  0
  5  8  1  0  0  0
  5 37  1  0  0  0
  6 15  1  0  0  0
  6  7  1  0  0  0
  6 20  2  0  0  0
  7 12  1  0  0  0
  7 38  1  0  0  0
  8 35  1  0  0  0
  8 39  1  0  0  0
  9 12  1  0  0  0
  9 22  2  0  0  0
  9 32  1  0  0  0
 10 19  1  0  0  0
 10 17  1  0  0  0
 10 31  1  0  0  0
 11 31  1  0  0  0
 11 13  3  0  0  0
 12 29  1  0  0  0
 12 40  1  0  0  0
 13 41  1  0  0  0
 14 21  2  0  0  0
 14 42  1  0  0  0
 15 26  1  0  0  0
 15 25  2  0  0  0
 16 30  1  0  0  0
 16 24  2  0  0  0
 16 34  1  0  0  0
 17 27  2  0  0  0
 17 28  1  0  0  0
 19 21  1  0  0  0
 19 43  1  0  0  0
 19 44  1  0  0  0
 21 33  1  0  0  0
 23 33  2  0  0  0
 23 45  1  0  0  0
 25 27  1  0  0  0
 25 46  1  0  0  0
 26 28  2  0  0  0
 26 47  1  0  0  0
 27 48  1  0  0  0
 28 49  1  0  0  0
 29 30  1  0  0  0
 29 50  1  0  0  0
 29 51  1  0  0  0
 30 52  1  0  0  0
 30 53  1  0  0  0
 31 54  1  0  0  0
 31 55  1  0  0  0
 32 56  1  0  0  0
 33 57  1  0  0  0
 34 58  1  0  0  0
 35 59  1  0  0  0
 35 60  1  0  0  0
 35 61  1  0  0  0
M  END
> <s_m_entry_id>
41221

> <s_m_entry_name>
dock_pv.338

> <s_m_Source_Path>
/home/csk/Desktop/cluster/DUD-E-result/tysy

> <s_m_Source_File>
dock_pv.maegz

> <i_m_Source_File_Index>
338

> <chembl_id>
CHEMBL330484

> <chembl_pref_name>
None

> <i_lp_mmshare_version>
53161

> <r_lp_tautomer_probability>
1

> <s_lp_Force_Field>
OPLS_2005

> <r_lp_Energy>
20.183244

> <b_lp_Chiralities_Consistent>
1

> <s_lp_Variant>
CHEMBL1952_lig104-2

> <s_i_glide_gridfile>
glide-grid_1syn

> <i_i_glide_lignum>
217

> <i_i_glide_rotatable_bonds>
14

> <r_i_docking_score>
-7.52082167488522

> <r_i_glide_ligand_efficiency>
-0.214880619282435

> <r_i_glide_ligand_efficiency_sa>
-0.702888753614229

> <r_i_glide_ligand_efficiency_ln>
-1.6509872732812

> <r_i_glide_gscore>
-7.52082167488522

> <r_i_glide_lipo>
-3.03522688353551

> <r_i_glide_hbond>
-0.16

> <r_i_glide_metal>
0

> <r_i_glide_rewards>
-1.03879151402627

> <r_i_glide_evdw>
-52.9729843139648

> <r_i_glide_ecoul>
-10.9524021148682

> <r_i_glide_erotb>
1.06210332364591

> <r_i_glide_esite>
-0.0573970680408854

> <r_i_glide_emodel>
-88.2623073021644

> <r_i_glide_energy>
-63.925386428833

> <r_i_glide_einternal>
13.4773559570312

> <i_i_glide_confnum>
77

> <i_i_glide_posenum>
362

> <r_i_glide_eff_state_penalty>
0

> <s_user_duplicate_titles>
CHEMBL1952_lig104

> <i_f3d_flags>
0

> <s_m_subgroup_title>
dock_pv

> <s_m_subgroupid>
dock_pv

> <b_m_subgroup_collapsed>
1

$$$$
CHEMBL1952_lig263
                    3D
 Schrodinger Suite 2021-1.
 59 61  0  0  1  0            999 V2000
   11.0781   10.1485   37.3681 N   0  0  0  0  0  0
   11.0313    9.1407   36.5854 C   0  0  0  0  0  0
   12.1114    8.6283   35.8928 N   0  0  0  0  0  0
   12.2661   10.8549   37.5955 C   0  0  0  0  0  0
   12.3809   11.8116   38.3592 O   0  0  0  0  0  0
   13.4825   10.3565   36.8237 C   0  0  0  0  0  0
   13.3666    9.2328   35.9965 C   0  0  0  0  0  0
   14.4717    8.7459   35.3027 C   0  0  0  0  0  0
   15.6963    9.4146   35.3988 C   0  0  0  0  0  0
   15.8180   10.5514   36.2039 C   0  0  0  0  0  0
   14.7147   11.0086   36.9341 C   0  0  0  0  0  0
   17.1694   11.2239   36.3940 C   0  0  0  0  0  0
   17.7306   11.8676   35.1940 N   0  0  0  0  0  0
   17.2310   13.1374   34.7890 C   0  0  0  0  0  0
   16.2282   13.8274   35.5032 C   0  0  0  0  0  0
   15.6963   15.0227   35.0205 C   0  0  0  0  0  0
   16.1876   15.5171   33.8137 C   0  0  0  0  0  0
   17.1951   14.9231   33.1279 N   0  0  0  0  0  0
   17.6955   13.7628   33.6167 C   0  0  0  0  0  0
   15.6366   16.7603   33.2094 C   0  0  0  0  0  0
   16.2035   17.8287   33.3766 O   0  0  0  0  0  0
   14.5318   16.6039   32.4691 N   0  0  0  0  0  0
   13.8952   17.6256   31.6170 C   0  0  1  0  0  0
   13.0005   16.9415   30.5281 C   0  0  0  0  0  0
   13.1841   18.7977   32.3593 C   0  0  0  0  0  0
   13.7239   19.0279   33.5902 O   0  0  0  0  0  0
   12.2643   19.4277   31.8842 O   0  0  0  0  0  0
   13.2609   15.4425   30.2002 C   0  0  0  0  0  0
   14.5890   15.1540   29.4861 C   0  0  0  0  0  0
   14.7316   13.8283   29.1908 O   0  0  0  0  0  0
   15.4212   16.0112   29.1961 O   0  0  0  0  0  0
    9.7020    8.4573   36.3669 C   0  0  0  0  0  0
   19.0598   11.4810   34.6781 C   0  0  0  0  0  0
   19.7117   10.2280   35.2779 C   0  0  0  0  0  0
   11.9597    7.8668   35.2434 H   0  0  0  0  0  0
   14.3848    7.8686   34.6863 H   0  0  0  0  0  0
   16.5536    9.0410   34.8538 H   0  0  0  0  0  0
   14.8199   11.8631   37.5900 H   0  0  0  0  0  0
   17.8307   10.4658   36.7993 H   0  0  0  0  0  0
   17.0661   11.9634   37.1861 H   0  0  0  0  0  0
   15.8281   13.4584   36.4296 H   0  0  0  0  0  0
   14.9160   15.5354   35.5632 H   0  0  0  0  0  0
   18.4648   13.3254   32.9979 H   0  0  0  0  0  0
   14.1289   15.6825   32.4169 H   0  0  0  0  0  0
   14.7183   18.1040   31.0827 H   0  0  0  0  0  0
   13.0814   17.5197   29.6056 H   0  0  0  0  0  0
   11.9455   17.0241   30.7908 H   0  0  0  0  0  0
   13.3137   19.7604   34.0881 H   0  0  0  0  0  0
   12.4418   15.0718   29.5907 H   0  0  0  0  0  0
   13.2085   14.8437   31.1063 H   0  0  0  0  0  0
   13.9934   13.2667   29.4635 H   0  0  0  0  0  0
    8.9258    8.8569   37.0227 H   0  0  0  0  0  0
    9.3636    8.5936   35.3395 H   0  0  0  0  0  0
    9.7773    7.3877   36.5623 H   0  0  0  0  0  0
   18.9888   11.3214   33.6004 H   0  0  0  0  0  0
   19.7513   12.3195   34.7952 H   0  0  0  0  0  0
   20.6624   10.0158   34.7913 H   0  0  0  0  0  0
   19.9310   10.3430   36.3393 H   0  0  0  0  0  0
   19.0724    9.3570   35.1409 H   0  0  0  0  0  0
  1  2  2  0  0  0
  1  4  1  0  0  0
  2  3  1  0  0  0
  2 32  1  0  0  0
  3  7  1  0  0  0
  3 35  1  0  0  0
  4  5  2  0  0  0
  4  6  1  0  0  0
  6 11  1  0  0  0
  6  7  2  0  0  0
  7  8  1  0  0  0
  8  9  2  0  0  0
  8 36  1  0  0  0
  9 10  1  0  0  0
  9 37  1  0  0  0
 10 11  2  0  0  0
 10 12  1  0  0  0
 11 38  1  0  0  0
 12 13  1  0  0  0
 12 39  1  0  0  0
 12 40  1  0  0  0
 13 14  1  0  0  0
 13 33  1  0  0  0
 14 19  1  0  0  0
 14 15  2  0  0  0
 15 16  1  0  0  0
 15 41  1  0  0  0
 16 17  2  0  0  0
 16 42  1  0  0  0
 17 18  1  0  0  0
 17 20  1  0  0  0
 18 19  2  0  0  0
 19 43  1  0  0  0
 20 21  2  0  0  0
 20 22  1  0  0  0
 22 23  1  0  0  0
 22 44  1  0  0  0
 23 24  1  0  0  0
 23 25  1  0  0  0
 23 45  1  0  0  0
 24 28  1  0  0  0
 24 46  1  0  0  0
 24 47  1  0  0  0
 25 26  1  0  0  0
 25 27  2  0  0  0
 26 48  1  0  0  0
 28 29  1  0  0  0
 28 49  1  0  0  0
 28 50  1  0  0  0
 29 30  1  0  0  0
 29 31  2  0  0  0
 30 51  1  0  0  0
 32 52  1  0  0  0
 32 53  1  0  0  0
 32 54  1  0  0  0
 33 34  1  0  0  0
 33 55  1  0  0  0
 33 56  1  0  0  0
 34 57  1  0  0  0
 34 58  1  0  0  0
 34 59  1  0  0  0
M  END
> <s_m_entry_id>
41222

> <s_m_entry_name>
dock_pv.339

> <s_m_Source_Path>
/home/csk/Desktop/cluster/DUD-E-result/tysy

> <s_m_Source_File>
dock_pv.maegz

> <i_m_Source_File_Index>
339

> <chembl_id>
CHEMBL43454

> <chembl_pref_name>
None

> <i_lp_mmshare_version>
53161

> <r_lp_tautomer_probability>
0.116051

> <s_lp_Force_Field>
OPLS_2005

> <r_lp_Energy>
19.777995

> <b_lp_Chiralities_Consistent>
1

> <s_lp_Variant>
CHEMBL1952_lig263-2

> <s_i_glide_gridfile>
glide-grid_1syn

> <i_i_glide_lignum>
523

> <i_i_glide_rotatable_bonds>
13

> <r_i_docking_score>
-7.51743961753608

> <r_i_glide_ligand_efficiency>
-0.221101165221649

> <r_i_glide_ligand_efficiency_sa>
-0.716281943286302

> <r_i_glide_ligand_efficiency_ln>
-1.66081326855279

> <r_i_glide_gscore>
-7.51743961753608

> <r_i_glide_lipo>
-2.45604378216465

> <r_i_glide_hbond>
-0.288

> <r_i_glide_metal>
0

> <r_i_glide_rewards>
-1.34886943968211

> <r_i_glide_evdw>
-49.4631996154785

> <r_i_glide_ecoul>
-12.3338928222656

> <r_i_glide_erotb>
0.923552966698422

> <r_i_glide_esite>
-0.0248354582739738

> <r_i_glide_emodel>
-83.6290409390262

> <r_i_glide_energy>
-61.7970924377441

> <r_i_glide_einternal>
15.6046714782715

> <i_i_glide_confnum>
58

> <i_i_glide_posenum>
374

> <r_i_glide_eff_state_penalty>
0

> <s_user_duplicate_titles>
CHEMBL1952_lig263,61657

> <i_f3d_flags>
0

> <s_m_subgroup_title>
dock_pv

> <s_m_subgroupid>
dock_pv

> <b_m_subgroup_collapsed>
1

$$$$
CHEMBL1952_lig416
                    3D
 Schrodinger Suite 2021-1.
 57 61  0  0  1  0            999 V2000
   13.8704   11.0816   37.7777 S   0  0  0  0  0  0
   13.8578   18.1798   33.3147 N   0  0  0  0  0  0
   17.3560   14.7162   33.2836 N   0  0  0  0  0  0
   16.4419   15.5756   32.6497 C   0  0  0  0  0  0
   14.7029   17.2489   32.7742 C   0  0  0  0  0  0
   13.5087   18.0313   31.1083 N   0  0  0  0  0  0
   15.6674   16.4646   33.4104 C   0  0  0  0  0  0
   13.1662   18.6271   32.2978 C   0  0  0  0  0  0
   14.5002   17.1184   31.3853 C   0  0  0  0  0  0
   16.2251   15.4708   31.2492 C   0  0  0  0  0  0
   15.0088   12.1324   36.8859 C   0  0  0  0  0  0
   12.4700   10.9627   36.6736 C   0  0  0  0  0  0
   15.2334   16.2276   30.6072 C   0  0  0  0  0  0
   14.4790    9.7491   37.8848 O   0  0  0  0  0  0
   13.4323   11.8126   38.9743 O   0  0  0  0  0  0
   17.7045   14.6929   34.7118 C   0  0  0  0  0  0
   16.0477   11.5745   36.1377 C   0  0  0  0  0  0
   14.8370   13.5145   36.9292 C   0  0  0  0  0  0
   12.4360    9.9558   35.7093 C   0  0  0  0  0  0
   11.4464   11.9087   36.7399 C   0  0  0  0  0  0
   16.7534   13.7912   35.4863 C   0  0  0  0  0  0
   18.3985   14.0551   32.4899 C   0  0  0  0  0  0
   10.3754   10.8774   34.8282 C   0  0  0  0  0  0
   16.9230   12.4055   35.4423 C   0  0  0  0  0  0
   15.7114   14.3411   36.2343 C   0  0  0  0  0  0
   10.4028   11.8601   35.8197 C   0  0  0  0  0  0
   11.3946    9.9158   34.7888 C   0  0  0  0  0  0
   17.1203   14.5903   30.3831 C   0  0  0  0  0  0
   12.0927   19.6819   32.3907 C   0  0  0  0  0  0
    9.3302   10.9383   33.9304 O   0  0  0  0  0  0
   17.7928   13.4922   31.2025 C   0  0  0  0  0  0
    9.3035   10.0295   32.8329 C   0  0  0  0  0  0
   13.0750   18.2671   30.2264 H   0  0  0  0  0  0
   15.7925   16.5591   34.4751 H   0  0  0  0  0  0
   15.0779   16.1543   29.5411 H   0  0  0  0  0  0
   18.7158   14.3205   34.8800 H   0  0  0  0  0  0
   17.7364   15.7022   35.1180 H   0  0  0  0  0  0
   16.1832   10.5024   36.0942 H   0  0  0  0  0  0
   14.0363   13.9516   37.5089 H   0  0  0  0  0  0
   13.2305    9.2245   35.6527 H   0  0  0  0  0  0
   11.4682   12.6935   37.4832 H   0  0  0  0  0  0
   19.0786   14.8470   32.1680 H   0  0  0  0  0  0
   18.9959   13.3171   33.0307 H   0  0  0  0  0  0
   17.7247   11.9733   34.8597 H   0  0  0  0  0  0
   15.5769   15.4097   36.2942 H   0  0  0  0  0  0
    9.6188   12.6039   35.8547 H   0  0  0  0  0  0
   11.4092    9.1430   34.0372 H   0  0  0  0  0  0
   16.5681   14.1473   29.5514 H   0  0  0  0  0  0
   17.8950   15.2196   29.9437 H   0  0  0  0  0  0
   11.7499   19.8270   33.4138 H   0  0  0  0  0  0
   11.2140   19.4143   31.8063 H   0  0  0  0  0  0
   12.4442   20.6451   32.0233 H   0  0  0  0  0  0
   18.5863   13.0331   30.6143 H   0  0  0  0  0  0
   17.0876   12.6968   31.4430 H   0  0  0  0  0  0
    8.4334   10.2404   32.2098 H   0  0  0  0  0  0
   10.1912   10.1290   32.2049 H   0  0  0  0  0  0
    9.2201    8.9942   33.1697 H   0  0  0  0  0  0
  1 11  1  0  0  0
  1 12  1  0  0  0
  1 14  2  0  0  0
  1 15  2  0  0  0
  2  5  1  0  0  0
  2  8  2  0  0  0
  3 16  1  0  0  0
  3  4  1  0  0  0
  3 22  1  0  0  0
  4  7  1  0  0  0
  4 10  2  0  0  0
  5  7  2  0  0  0
  5  9  1  0  0  0
  6  9  1  0  0  0
  6  8  1  0  0  0
  6 33  1  0  0  0
  7 34  1  0  0  0
  8 29  1  0  0  0
  9 13  2  0  0  0
 10 13  1  0  0  0
 10 28  1  0  0  0
 11 17  1  0  0  0
 11 18  2  0  0  0
 12 19  2  0  0  0
 12 20  1  0  0  0
 13 35  1  0  0  0
 16 21  1  0  0  0
 16 36  1  0  0  0
 16 37  1  0  0  0
 17 24  2  0  0  0
 17 38  1  0  0  0
 18 25  1  0  0  0
 18 39  1  0  0  0
 19 27  1  0  0  0
 19 40  1  0  0  0
 20 26  2  0  0  0
 20 41  1  0  0  0
 21 25  2  0  0  0
 21 24  1  0  0  0
 22 31  1  0  0  0
 22 42  1  0  0  0
 22 43  1  0  0  0
 23 26  1  0  0  0
 23 30  1  0  0  0
 23 27  2  0  0  0
 24 44  1  0  0  0
 25 45  1  0  0  0
 26 46  1  0  0  0
 27 47  1  0  0  0
 28 31  1  0  0  0
 28 48  1  0  0  0
 28 49  1  0  0  0
 29 50  1  0  0  0
 29 51  1  0  0  0
 29 52  1  0  0  0
 30 32  1  0  0  0
 31 53  1  0  0  0
 31 54  1  0  0  0
 32 55  1  0  0  0
 32 56  1  0  0  0
 32 57  1  0  0  0
M  END
> <s_m_entry_id>
41223

> <s_m_entry_name>
dock_pv.340

> <s_m_Source_Path>
/home/csk/Desktop/cluster/DUD-E-result/tysy

> <s_m_Source_File>
dock_pv.maegz

> <i_m_Source_File_Index>
340

> <chembl_id>
CHEMBL169727

> <chembl_pref_name>
None

> <i_lp_mmshare_version>
53161

> <r_lp_tautomer_probability>
1

> <s_lp_Force_Field>
OPLS_2005

> <r_lp_Energy>
20.383845

> <b_lp_Chiralities_Consistent>
1

> <s_lp_Variant>
CHEMBL1952_lig416-1

> <s_i_glide_gridfile>
glide-grid_1syn

> <i_i_glide_lignum>
810

> <i_i_glide_rotatable_bonds>
5

> <r_i_docking_score>
-7.51584724749635

> <r_i_glide_ligand_efficiency>
-0.234870226484261

> <r_i_glide_ligand_efficiency_sa>
-0.745666488332823

> <r_i_glide_ligand_efficiency_ln>
-1.68300307297268

> <r_i_glide_gscore>
-7.51584724749635

> <r_i_glide_lipo>
-3.80431321441255

> <r_i_glide_hbond>
0

> <r_i_glide_metal>
0

> <r_i_glide_rewards>
-1.01679675317924

> <r_i_glide_evdw>
-48.7537498474121

> <r_i_glide_ecoul>
-4.37971925735474

> <r_i_glide_erotb>
0.399908101069259

> <r_i_glide_esite>
0

> <r_i_glide_emodel>
-75.383214889808

> <r_i_glide_energy>
-53.1334691047668

> <r_i_glide_einternal>
3.6052405834198

> <i_i_glide_confnum>
11

> <i_i_glide_posenum>
140

> <r_i_glide_eff_state_penalty>
0

> <s_user_duplicate_titles>
CHEMBL1952_lig416,282598

> <i_f3d_flags>
0

> <s_m_subgroup_title>
dock_pv

> <s_m_subgroupid>
dock_pv

> <b_m_subgroup_collapsed>
1

$$$$
CHEMBL1952_lig351
                    3D
 Schrodinger Suite 2021-1.
 52 55  0  0  1  0            999 V2000
   13.8942   17.8005   32.7442 C   0  0  0  0  0  0
   14.9974   16.8012   32.5019 C   0  0  0  0  0  0
   13.2841   18.1902   31.5993 N   0  0  0  0  0  0
   14.4547   16.8677   30.1125 N   0  0  0  0  0  0
   12.9284   11.7469   38.2573 S   0  0  1  0  0  0
   14.2895   12.3694   37.2000 C   0  0  0  0  0  0
   15.2014   16.3603   31.1904 C   0  0  0  0  0  0
   13.5592   17.7602   30.3311 C   0  0  0  0  0  0
   14.6898   13.7094   37.1843 C   0  0  0  0  0  0
   15.7521   14.1107   36.3692 C   0  0  0  0  0  0
   16.4565   13.1943   35.5719 C   0  0  0  0  0  0
   17.5888   13.5929   34.7931 N   0  0  0  0  0  0
   14.9587   11.4503   36.3999 C   0  0  0  0  0  0
   18.9919   11.5418   34.9009 C   0  0  0  0  0  0
   19.4130   10.6280   35.5905 C   0  0  0  0  0  0
   15.7897   16.3306   33.5520 C   0  0  0  0  0  0
   12.4405   12.9086   39.1270 O   0  0  0  0  0  0
   13.5453   18.2246   33.8382 O   0  0  0  0  0  0
   11.6835   11.5094   36.9386 C   0  0  0  0  0  0
   17.7706   14.9938   34.3917 C   0  0  0  0  0  0
   16.8190   15.4237   33.2793 C   0  0  0  0  0  0
   16.0086   11.8625   35.5911 C   0  0  0  0  0  0
   16.1995   15.4274   30.9270 C   0  0  0  0  0  0
   14.0899   14.6262   37.9733 F   0  0  0  0  0  0
   18.4494   12.6363   34.0740 C   0  0  0  0  0  0
   17.0136   14.9686   31.9664 C   0  0  0  0  0  0
   12.7769   18.3688   29.1911 C   0  0  0  0  0  0
   10.6328   12.4177   36.8058 C   0  0  0  0  0  0
   11.7907   10.4168   36.0738 C   0  0  0  0  0  0
   10.8554   10.2455   35.0568 C   0  0  0  0  0  0
    9.6841   12.2278   35.8036 C   0  0  0  0  0  0
    9.8046   11.1508   34.9276 C   0  0  0  0  0  0
   16.0376   15.1483   36.3973 H   0  0  0  0  0  0
   14.6781   10.4090   36.3998 H   0  0  0  0  0  0
   19.7905    9.8316   36.1862 H   0  0  0  0  0  0
   15.6263   16.6854   34.5612 H   0  0  0  0  0  0
   12.5635   18.8799   31.7367 H   0  0  0  0  0  0
   18.7845   15.1490   34.0185 H   0  0  0  0  0  0
   17.7135   15.6518   35.2511 H   0  0  0  0  0  0
   16.4620   11.1079   34.9722 H   0  0  0  0  0  0
   16.3613   15.0853   29.9160 H   0  0  0  0  0  0
   17.8947   12.2200   33.2371 H   0  0  0  0  0  0
   19.3228   13.1259   33.6390 H   0  0  0  0  0  0
   17.8119   14.2738   31.7446 H   0  0  0  0  0  0
   13.1909   18.0819   28.2234 H   0  0  0  0  0  0
   11.7344   18.0513   29.2091 H   0  0  0  0  0  0
   12.7966   19.4571   29.2432 H   0  0  0  0  0  0
   10.5502   13.2616   37.4751 H   0  0  0  0  0  0
   12.5899    9.7002   36.1816 H   0  0  0  0  0  0
   10.9413    9.4153   34.3710 H   0  0  0  0  0  0
    8.8643   12.9231   35.6972 H   0  0  0  0  0  0
    9.0764   11.0147   34.1407 H   0  0  0  0  0  0
  1 18  2  0  0  0
  1  2  1  0  0  0
  1  3  1  0  0  0
  2 16  1  0  0  0
  2  7  2  0  0  0
  3  8  1  0  0  0
  3 37  1  0  0  0
  4  7  1  0  0  0
  4  8  2  0  0  0
  5  6  1  0  0  0
  5 17  2  0  0  0
  5 19  1  0  0  0
  6 13  2  0  0  0
  6  9  1  0  0  0
  7 23  1  0  0  0
  8 27  1  0  0  0
  9 10  2  0  0  0
  9 24  1  0  0  0
 10 11  1  0  0  0
 10 33  1  0  0  0
 11 12  1  0  0  0
 11 22  2  0  0  0
 12 20  1  0  0  0
 12 25  1  0  0  0
 13 22  1  0  0  0
 13 34  1  0  0  0
 14 25  1  0  0  0
 14 15  3  0  0  0
 15 35  1  0  0  0
 16 36  1  0  0  0
 16 21  2  0  0  0
 19 28  2  0  0  0
 19 29  1  0  0  0
 20 38  1  0  0  0
 20 39  1  0  0  0
 20 21  1  0  0  0
 21 26  1  0  0  0
 22 40  1  0  0  0
 23 26  2  0  0  0
 23 41  1  0  0  0
 25 42  1  0  0  0
 25 43  1  0  0  0
 26 44  1  0  0  0
 27 45  1  0  0  0
 27 46  1  0  0  0
 27 47  1  0  0  0
 28 31  1  0  0  0
 28 48  1  0  0  0
 29 30  2  0  0  0
 29 49  1  0  0  0
 30 32  1  0  0  0
 30 50  1  0  0  0
 31 32  2  0  0  0
 31 51  1  0  0  0
 32 52  1  0  0  0
M  END
> <s_m_entry_id>
41224

> <s_m_entry_name>
dock_pv.341

> <s_m_Source_Path>
/home/csk/Desktop/cluster/DUD-E-result/tysy

> <s_m_Source_File>
dock_pv.maegz

> <i_m_Source_File_Index>
341

> <chembl_id>
CHEMBL161025

> <chembl_pref_name>
None

> <i_lp_mmshare_version>
53161

> <r_lp_tautomer_probability>
0.883938

> <s_lp_Force_Field>
OPLS_2005

> <r_lp_Energy>
24.357591

> <b_lp_Chiralities_Consistent>
1

> <s_lp_Variant>
CHEMBL1952_lig351-2

> <s_i_glide_gridfile>
glide-grid_1syn

> <i_i_glide_lignum>
650

> <i_i_glide_rotatable_bonds>
7

> <r_i_docking_score>
-7.50946367238896

> <r_i_glide_ligand_efficiency>
-0.234670739762155

> <r_i_glide_ligand_efficiency_sa>
-0.745033157468505

> <r_i_glide_ligand_efficiency_ln>
-1.68157361649645

> <r_i_glide_gscore>
-7.50946367238896

> <r_i_glide_lipo>
-3.91551246129998

> <r_i_glide_hbond>
0

> <r_i_glide_metal>
0

> <r_i_glide_rewards>
-1.02366193240059

> <r_i_glide_evdw>
-54.2557754516602

> <r_i_glide_ecoul>
-3.75450253486633

> <r_i_glide_erotb>
0.705674874124565

> <r_i_glide_esite>
0

> <r_i_glide_emodel>
-83.6400592686957

> <r_i_glide_energy>
-58.0102779865265

> <r_i_glide_einternal>
2.48560476303101

> <i_i_glide_confnum>
61

> <i_i_glide_posenum>
208

> <r_i_glide_eff_state_penalty>
0

> <s_user_duplicate_titles>
CHEMBL1952_lig351,CHEMBL1952_lig351,267530

> <i_f3d_flags>
0

> <s_m_subgroup_title>
dock_pv

> <s_m_subgroupid>
dock_pv

> <b_m_subgroup_collapsed>
1

$$$$
CHEMBL1952_lig188
                    3D
 Schrodinger Suite 2021-1.
 64 66  0  0  1  0            999 V2000
   13.2725    8.7140   36.0538 N   0  0  0  0  0  0
   12.2649    9.5586   36.4203 C   0  0  0  0  0  0
   12.4853   10.8027   36.6318 N   0  0  0  0  0  0
   14.5721    9.0338   35.8514 C   0  0  0  0  0  0
   10.8764    8.9833   36.5583 C   0  0  0  0  0  0
   15.3918    8.1619   35.5908 O   0  0  0  0  0  0
   14.8437   10.5120   36.0214 C   0  0  0  0  0  0
   13.7789   11.3169   36.4430 C   0  0  0  0  0  0
   13.9857   12.6690   36.6876 C   0  0  0  0  0  0
   15.2481   13.2226   36.4864 C   0  0  0  0  0  0
   16.3067   12.4407   35.9998 C   0  0  0  0  0  0
   16.1097   11.0676   35.7912 C   0  0  0  0  0  0
   17.6925   13.0577   35.7944 C   0  0  0  0  0  0
   18.0099   13.3849   34.3976 N   0  0  0  0  0  0
   17.2736   14.3578   33.6835 C   0  0  0  0  0  0
   16.4939   15.3157   34.3409 C   0  0  0  0  0  0
   15.6302   16.1380   33.6324 C   0  0  0  0  0  0
   15.5425   16.0239   32.2438 C   0  0  0  0  0  0
   16.4251   15.1660   31.5692 C   0  0  0  0  0  0
   17.2788   14.3402   32.2842 C   0  0  0  0  0  0
   14.4761   16.7907   31.5085 C   0  0  0  0  0  0
   13.9288   17.7707   32.0153 O   0  0  0  0  0  0
   14.1630   16.2891   30.3018 N   0  0  0  0  0  0
   13.2111   16.7984   29.3130 C   0  0  1  0  0  0
   11.7708   16.2979   29.5910 C   0  0  0  0  0  0
   13.3059   18.3160   29.0872 C   0  0  0  0  0  0
   14.5902   18.6280   28.7910 O   0  0  0  0  0  0
   12.3910   19.1017   29.1921 O   0  0  0  0  0  0
   11.6422   14.7732   29.8263 C   0  0  0  0  0  0
   10.2267   14.2288   29.5910 C   0  0  0  0  0  0
   10.1920   12.8656   29.5946 O   0  0  0  0  0  0
    9.2355   14.9397   29.4431 O   0  0  0  0  0  0
   19.3917   13.1984   33.9518 C   0  0  0  0  0  0
   20.3211   14.3852   34.2723 C   0  0  0  0  0  0
   21.8088   14.0171   34.4306 C   0  0  0  0  0  0
   22.5447   14.2280   33.2488 O   0  0  0  0  0  0
   13.0625    7.7384   35.9245 H   0  0  0  0  0  0
   10.1984    9.6807   37.0556 H   0  0  0  0  0  0
   10.4581    8.7580   35.5765 H   0  0  0  0  0  0
   10.8884    8.0633   37.1431 H   0  0  0  0  0  0
   13.1691   13.2843   37.0350 H   0  0  0  0  0  0
   15.3900   14.2658   36.7217 H   0  0  0  0  0  0
   16.9332   10.4517   35.4520 H   0  0  0  0  0  0
   18.4328   12.3580   36.1824 H   0  0  0  0  0  0
   17.7801   13.9629   36.3911 H   0  0  0  0  0  0
   16.5298   15.4251   35.4102 H   0  0  0  0  0  0
   14.9957   16.8236   34.1781 H   0  0  0  0  0  0
   16.4276   15.0787   30.4923 H   0  0  0  0  0  0
   17.8765   13.6307   31.7320 H   0  0  0  0  0  0
   14.6588   15.4612   30.0135 H   0  0  0  0  0  0
   13.5792   16.3684   28.3911 H   0  0  0  0  0  0
   11.1051   16.6121   28.7911 H   0  0  0  0  0  0
   11.3923   16.8286   30.4584 H   0  0  0  0  0  0
   14.7042   19.5737   28.9324 H   0  0  0  0  0  0
   11.9419   14.5478   30.8458 H   0  0  0  0  0  0
   12.3368   14.2281   29.1911 H   0  0  0  0  0  0
   11.0749   12.4804   29.6852 H   0  0  0  0  0  0
   19.7605   12.2958   34.4401 H   0  0  0  0  0  0
   19.4567   12.9801   32.8908 H   0  0  0  0  0  0
   20.1832   15.1590   33.5175 H   0  0  0  0  0  0
   19.9937   14.8608   35.1908 H   0  0  0  0  0  0
   22.2582   14.6284   35.1910 H   0  0  0  0  0  0
   21.9440   13.0073   34.8098 H   0  0  0  0  0  0
   22.3333   13.4790   32.6756 H   0  0  0  0  0  0
  1  2  1  0  0  0
  1  4  1  0  0  0
  1 37  1  0  0  0
  2  5  1  0  0  0
  2  3  2  0  0  0
  3  8  1  0  0  0
  4  7  1  0  0  0
  4  6  2  0  0  0
  5 38  1  0  0  0
  5 39  1  0  0  0
  5 40  1  0  0  0
  7 12  1  0  0  0
  7  8  2  0  0  0
  8  9  1  0  0  0
  9 10  2  0  0  0
  9 41  1  0  0  0
 10 11  1  0  0  0
 10 42  1  0  0  0
 11 12  2  0  0  0
 11 13  1  0  0  0
 12 43  1  0  0  0
 13 14  1  0  0  0
 13 44  1  0  0  0
 13 45  1  0  0  0
 14 15  1  0  0  0
 14 33  1  0  0  0
 15 20  1  0  0  0
 15 16  2  0  0  0
 16 17  1  0  0  0
 16 46  1  0  0  0
 17 18  2  0  0  0
 17 47  1  0  0  0
 18 19  1  0  0  0
 18 21  1  0  0  0
 19 20  2  0  0  0
 19 48  1  0  0  0
 20 49  1  0  0  0
 21 22  2  0  0  0
 21 23  1  0  0  0
 23 24  1  0  0  0
 23 50  1  0  0  0
 24 25  1  0  0  0
 24 26  1  0  0  0
 24 51  1  0  0  0
 25 29  1  0  0  0
 25 52  1  0  0  0
 25 53  1  0  0  0
 26 27  1  0  0  0
 26 28  2  0  0  0
 27 54  1  0  0  0
 29 30  1  0  0  0
 29 55  1  0  0  0
 29 56  1  0  0  0
 30 31  1  0  0  0
 30 32  2  0  0  0
 31 57  1  0  0  0
 33 34  1  0  0  0
 33 58  1  0  0  0
 33 59  1  0  0  0
 34 35  1  0  0  0
 34 60  1  0  0  0
 34 61  1  0  0  0
 35 36  1  0  0  0
 35 62  1  0  0  0
 35 63  1  0  0  0
 36 64  1  0  0  0
M  END
> <s_m_entry_id>
41226

> <s_m_entry_name>
dock_pv.343

> <s_m_Source_Path>
/home/csk/Desktop/cluster/DUD-E-result/tysy

> <s_m_Source_File>
dock_pv.maegz

> <i_m_Source_File_Index>
343

> <chembl_id>
CHEMBL104748

> <chembl_pref_name>
None

> <i_lp_mmshare_version>
53161

> <r_lp_tautomer_probability>
0.883938

> <s_lp_Force_Field>
OPLS_2005

> <r_lp_Energy>
24.49995

> <b_lp_Chiralities_Consistent>
1

> <s_lp_Variant>
CHEMBL1952_lig188-1

> <s_i_glide_gridfile>
glide-grid_1syn

> <i_i_glide_lignum>
373

> <i_i_glide_rotatable_bonds>
16

> <r_i_docking_score>
-7.5084616766741

> <r_i_glide_ligand_efficiency>
-0.208568379907614

> <r_i_glide_ligand_efficiency_sa>
-0.688677616052127

> <r_i_glide_ligand_efficiency_ln>
-1.63814348265859

> <r_i_glide_gscore>
-7.5084616766741

> <r_i_glide_lipo>
-2.89443435680505

> <r_i_glide_hbond>
-0.264857926716204

> <r_i_glide_metal>
0

> <r_i_glide_rewards>
-1.09688528566731

> <r_i_glide_evdw>
-49.2809371948242

> <r_i_glide_ecoul>
-12.4240798950195

> <r_i_glide_erotb>
1.07537473650861

> <r_i_glide_esite>
0

> <r_i_glide_emodel>
-73.2822878986806

> <r_i_glide_energy>
-61.7050170898438

> <r_i_glide_einternal>
28.9340858459473

> <i_i_glide_confnum>
54

> <i_i_glide_posenum>
149

> <r_i_glide_eff_state_penalty>
0

> <s_user_duplicate_titles>
CHEMBL1952_lig188,170790

> <i_f3d_flags>
0

> <s_m_subgroup_title>
dock_pv

> <s_m_subgroupid>
dock_pv

> <b_m_subgroup_collapsed>
1

$$$$
CHEMBL1952_lig194
                    3D
 Schrodinger Suite 2021-1.
 60 62  0  0  1  0            999 V2000
   13.1088   18.5315   31.3413 N   0  0  0  0  0  0
   12.9943   18.2860   29.9968 C   0  0  0  0  0  0
   13.6713   17.3409   29.4423 N   0  0  0  0  0  0
   13.9401   17.9194   32.2181 C   0  0  0  0  0  0
   12.0433   19.1599   29.1920 C   0  0  0  0  0  0
   13.9692   18.2283   33.4039 O   0  0  0  0  0  0
   14.7825   16.8516   31.5657 C   0  0  0  0  0  0
   14.5912   16.6016   30.2051 C   0  0  0  0  0  0
   15.3372   15.6054   29.5787 C   0  0  0  0  0  0
   16.2771   14.8751   30.3123 C   0  0  0  0  0  0
   16.4853   15.1313   31.6753 C   0  0  0  0  0  0
   15.7261   16.1333   32.2996 C   0  0  0  0  0  0
   17.5370   14.3046   32.4272 C   0  0  0  0  0  0
   17.7063   14.6965   33.8370 N   0  0  0  0  0  0
   16.9353   14.0121   34.7995 C   0  0  0  0  0  0
   16.0462   14.7364   35.5908 C   0  0  0  0  0  0
   15.2162   14.0896   36.5018 C   0  0  0  0  0  0
   15.2665   12.6939   36.6503 C   0  0  0  0  0  0
   16.1887   11.9748   35.8761 C   0  0  0  0  0  0
   17.0129   12.6267   34.9602 C   0  0  0  0  0  0
   14.3605   11.9551   37.6187 C   0  0  0  0  0  0
   14.4796   10.7394   37.7902 O   0  0  0  0  0  0
   13.4350   12.6851   38.2719 N   0  0  0  0  0  0
   12.4258   12.1610   39.2076 C   0  0  1  0  0  0
   13.0212   11.9269   40.6302 C   0  0  0  0  0  0
   11.1453   13.0284   39.2018 C   0  0  0  0  0  0
   10.7248   13.2701   37.9281 O   0  0  0  0  0  0
   10.5923   13.4278   40.2051 O   0  0  0  0  0  0
   13.6276   13.1740   41.3180 C   0  0  0  0  0  0
   13.7920   13.0279   42.8321 C   0  0  0  0  0  0
   14.5351   11.9437   43.1910 O   0  0  0  0  0  0
   13.3038   13.8115   43.6425 O   0  0  0  0  0  0
   19.0605   15.0529   34.2584 C   0  0  0  0  0  0
   12.5923   19.5214   28.0280 F   0  0  0  0  0  0
   20.0621   13.8860   34.3273 C   0  0  0  0  0  0
   21.2642   14.2280   34.7899 F   0  0  0  0  0  0
   12.5588   19.2647   31.7573 H   0  0  0  0  0  0
   11.1156   18.6308   28.9809 H   0  0  0  0  0  0
   11.7923   20.0818   29.7184 H   0  0  0  0  0  0
   15.1883   15.4015   28.5288 H   0  0  0  0  0  0
   16.8467   14.1035   29.8135 H   0  0  0  0  0  0
   15.8697   16.3608   33.3444 H   0  0  0  0  0  0
   18.4844   14.3999   31.8923 H   0  0  0  0  0  0
   17.2627   13.2514   32.3483 H   0  0  0  0  0  0
   15.9745   15.8081   35.4902 H   0  0  0  0  0  0
   14.5432   14.7023   37.0836 H   0  0  0  0  0  0
   16.2672   10.9006   35.9652 H   0  0  0  0  0  0
   17.7024   12.0484   34.3625 H   0  0  0  0  0  0
   13.3452   13.6618   38.0422 H   0  0  0  0  0  0
   12.1024   11.1906   38.8255 H   0  0  0  0  0  0
   13.7953   11.1611   40.5580 H   0  0  0  0  0  0
   12.2579   11.4817   41.2708 H   0  0  0  0  0  0
    9.9254   13.8018   37.9253 H   0  0  0  0  0  0
   13.0002   14.0483   41.1444 H   0  0  0  0  0  0
   14.5918   13.4048   40.8797 H   0  0  0  0  0  0
   14.6620   11.8782   44.1510 H   0  0  0  0  0  0
   19.4632   15.8361   33.6170 H   0  0  0  0  0  0
   19.0320   15.5591   35.2205 H   0  0  0  0  0  0
   19.7003   13.0815   34.9636 H   0  0  0  0  0  0
   20.1920   13.4474   33.3395 H   0  0  0  0  0  0
  1  2  1  0  0  0
  1  4  1  0  0  0
  1 37  1  0  0  0
  2  5  1  0  0  0
  2  3  2  0  0  0
  3  8  1  0  0  0
  4  7  1  0  0  0
  4  6  2  0  0  0
  5 34  1  0  0  0
  5 38  1  0  0  0
  5 39  1  0  0  0
  7 12  1  0  0  0
  7  8  2  0  0  0
  8  9  1  0  0  0
  9 10  2  0  0  0
  9 40  1  0  0  0
 10 11  1  0  0  0
 10 41  1  0  0  0
 11 12  2  0  0  0
 11 13  1  0  0  0
 12 42  1  0  0  0
 13 14  1  0  0  0
 13 43  1  0  0  0
 13 44  1  0  0  0
 14 15  1  0  0  0
 14 33  1  0  0  0
 15 20  1  0  0  0
 15 16  2  0  0  0
 16 17  1  0  0  0
 16 45  1  0  0  0
 17 18  2  0  0  0
 17 46  1  0  0  0
 18 19  1  0  0  0
 18 21  1  0  0  0
 19 20  2  0  0  0
 19 47  1  0  0  0
 20 48  1  0  0  0
 21 22  2  0  0  0
 21 23  1  0  0  0
 23 24  1  0  0  0
 23 49  1  0  0  0
 24 25  1  0  0  0
 24 26  1  0  0  0
 24 50  1  0  0  0
 25 29  1  0  0  0
 25 51  1  0  0  0
 25 52  1  0  0  0
 26 27  1  0  0  0
 26 28  2  0  0  0
 27 53  1  0  0  0
 29 30  1  0  0  0
 29 54  1  0  0  0
 29 55  1  0  0  0
 30 31  1  0  0  0
 30 32  2  0  0  0
 31 56  1  0  0  0
 33 35  1  0  0  0
 33 57  1  0  0  0
 33 58  1  0  0  0
 35 36  1  0  0  0
 35 59  1  0  0  0
 35 60  1  0  0  0
M  END
> <s_m_entry_id>
41227

> <s_m_entry_name>
dock_pv.344

> <s_m_Source_Path>
/home/csk/Desktop/cluster/DUD-E-result/tysy

> <s_m_Source_File>
dock_pv.maegz

> <i_m_Source_File_Index>
344

> <chembl_id>
CHEMBL102469

> <chembl_pref_name>
None

> <i_lp_mmshare_version>
53161

> <r_lp_tautomer_probability>
0.883938

> <s_lp_Force_Field>
OPLS_2005

> <r_lp_Energy>
29.075477

> <b_lp_Chiralities_Consistent>
1

> <s_lp_Variant>
CHEMBL1952_lig194-1

> <s_i_glide_gridfile>
glide-grid_1syn

> <i_i_glide_lignum>
385

> <i_i_glide_rotatable_bonds>
15

> <r_i_docking_score>
-7.50697772818685

> <r_i_glide_ligand_efficiency>
-0.208527159116301

> <r_i_glide_ligand_efficiency_sa>
-0.688541507998234

> <r_i_glide_ligand_efficiency_ln>
-1.63781972519033

> <r_i_glide_gscore>
-7.50697772818685

> <r_i_glide_lipo>
-3.59555638672561

> <r_i_glide_hbond>
0

> <r_i_glide_metal>
0

> <r_i_glide_rewards>
0.258819238287188

> <r_i_glide_evdw>
-59.8401679992676

> <r_i_glide_ecoul>
-13.0695743560791

> <r_i_glide_erotb>
0.890261067685443

> <r_i_glide_esite>
-0.108057094058634

> <r_i_glide_emodel>
-92.9105331414583

> <r_i_glide_energy>
-72.9097423553467

> <r_i_glide_einternal>
18.6787567138672

> <i_i_glide_confnum>
170

> <i_i_glide_posenum>
118

> <r_i_glide_eff_state_penalty>
0

> <s_user_duplicate_titles>
CHEMBL1952_lig194,170331

> <i_f3d_flags>
0

> <s_m_subgroup_title>
dock_pv

> <s_m_subgroupid>
dock_pv

> <b_m_subgroup_collapsed>
1

$$$$
CHEMBL1952_lig1
                    3D
 Schrodinger Suite 2021-1.
 33 34  0  0  1  0            999 V2000
   15.7920   15.4279   34.6308 N   0  0  0  0  0  0
   16.7124   14.5222   35.1311 C   0  0  0  0  0  0
   16.1921   13.6483   36.0485 N   0  0  0  0  0  0
   14.9231   13.5447   36.5372 C   0  0  0  0  0  0
   14.0281   14.5467   35.9911 C   0  0  0  0  0  0
   14.4934   15.4287   35.0854 C   0  0  0  0  0  0
   17.8990   14.4439   34.8151 O   0  0  0  0  0  0
   14.5880   12.6846   37.3467 O   0  0  0  0  0  0
   16.2289   16.3277   33.5647 C   0  0  1  0  0  0
   16.3343   15.7294   32.1656 C   0  0  0  0  0  0
   15.0351   16.1816   31.5222 C   0  0  1  0  0  0
   14.7466   17.5382   32.1794 C   0  0  2  0  0  0
   15.1978   16.2283   30.1184 O   0  0  0  0  0  0
   15.4164   17.4650   33.4386 O   0  0  0  0  0  0
   13.2560   17.9115   32.3960 C   0  0  0  0  0  0
   12.7690   18.8353   31.4303 O   0  0  0  0  0  0
   12.5930   18.4364   29.8606 P   0  0  0  0  0  0
   11.9927   17.1003   29.6025 O   0  0  0  0  0  0
   11.7920   19.7033   29.2507 O   0  0  0  0  0  0
   14.0874   18.6276   29.2689 O   0  0  0  0  0  0
   16.8497   12.9799   36.4195 H   0  0  0  0  0  0
   12.9999   14.5715   36.3200 H   0  0  0  0  0  0
   13.8669   16.1904   34.6475 H   0  0  0  0  0  0
   17.2104   16.6829   33.8923 H   0  0  0  0  0  0
   16.4616   14.6457   32.1843 H   0  0  0  0  0  0
   17.2031   16.1663   31.6728 H   0  0  0  0  0  0
   14.2523   15.4675   31.7822 H   0  0  0  0  0  0
   15.2493   18.3572   31.6687 H   0  0  0  0  0  0
   14.4940   16.7610   29.7282 H   0  0  0  0  0  0
   13.1579   18.4273   33.3529 H   0  0  0  0  0  0
   12.5921   17.0436   32.4583 H   0  0  0  0  0  0
   10.8173   19.7028   29.4142 H   0  0  0  0  0  0
   14.5575   19.4128   29.6234 H   0  0  0  0  0  0
  1  2  1  0  0  0
  1  6  1  0  0  0
  1  9  1  0  0  0
  2  3  1  0  0  0
  2  7  2  0  0  0
  3  4  1  0  0  0
  3 21  1  0  0  0
  4  5  1  0  0  0
  4  8  2  0  0  0
  5  6  2  0  0  0
  5 22  1  0  0  0
  6 23  1  0  0  0
  9 10  1  0  0  0
  9 14  1  0  0  0
  9 24  1  0  0  0
 10 11  1  0  0  0
 10 25  1  0  0  0
 10 26  1  0  0  0
 11 12  1  0  0  0
 11 13  1  0  0  0
 11 27  1  0  0  0
 12 14  1  0  0  0
 12 15  1  0  0  0
 12 28  1  0  0  0
 13 29  1  0  0  0
 15 16  1  0  0  0
 15 30  1  0  0  0
 15 31  1  0  0  0
 16 17  1  0  0  0
 17 18  2  0  0  0
 17 19  1  0  0  0
 17 20  1  0  0  0
 19 32  1  0  0  0
 20 33  1  0  0  0
M  END
> <s_m_entry_id>
41228

> <s_m_entry_name>
dock_pv.345

> <s_m_Source_Path>
/home/csk/Desktop/cluster/DUD-E-result/tysy

> <s_m_Source_File>
dock_pv.maegz

> <i_m_Source_File_Index>
345

> <chembl_id>
CHEMBL211312

> <chembl_pref_name>
DEOXYURIDINE MONOPHOSPHATE

> <i_lp_mmshare_version>
53161

> <r_lp_tautomer_probability>
0.999537046341301

> <s_lp_Force_Field>
OPLS_2005

> <r_lp_Energy>
9.340087

> <b_lp_Chiralities_Consistent>
1

> <s_lp_Variant>
CHEMBL1952_lig1-1

> <s_i_glide_gridfile>
glide-grid_1syn

> <i_i_glide_lignum>
1

> <i_i_glide_rotatable_bonds>
7

> <r_i_docking_score>
-7.50569951411484

> <r_i_glide_ligand_efficiency>
-0.375284975705742

> <r_i_glide_ligand_efficiency_sa>
-1.01868014828183

> <r_i_glide_ligand_efficiency_ln>
-1.87842903384488

> <r_i_glide_gscore>
-7.50569951411484

> <r_i_glide_lipo>
-1.74094007785828

> <r_i_glide_hbond>
-0.00509288298744059

> <r_i_glide_metal>
0

> <r_i_glide_rewards>
-2.61272211252491

> <r_i_glide_evdw>
-35.1015396118164

> <r_i_glide_ecoul>
-14.4727821350098

> <r_i_glide_erotb>
0.779049860098079

> <r_i_glide_esite>
0

> <r_i_glide_emodel>
-70.0418370691646

> <r_i_glide_energy>
-49.5743217468262

> <r_i_glide_einternal>
5.57415390014648

> <i_i_glide_confnum>
149

> <i_i_glide_posenum>
362

> <r_i_glide_eff_state_penalty>
0

> <s_user_duplicate_titles>
CHEMBL1952_lig1

> <i_f3d_flags>
0

> <s_m_subgroup_title>
dock_pv

> <s_m_subgroupid>
dock_pv

> <b_m_subgroup_collapsed>
1

$$$$
CHEMBL1952_lig410
                    3D
 Schrodinger Suite 2021-1.
 36 38  0  0  1  0            999 V2000
   17.1611   13.9262   34.6312 C   0  0  0  0  0  0
   18.5292   13.6259   34.0316 C   0  0  0  0  0  0
   18.9920   12.4046   34.3650 N   0  0  0  0  0  0
   16.4402   15.1167   34.3857 C   0  0  0  0  0  0
   17.2687   11.7189   35.7199 N   0  0  0  0  0  0
   16.6430   12.9619   35.5101 C   0  0  0  0  0  0
   18.4031   11.4865   35.1739 C   0  0  0  0  0  0
   16.9920   16.3102   33.1910 S   0  0  0  0  0  0
   15.2560   15.3678   35.1108 C   0  0  0  0  0  0
   19.2372   14.3615   33.3541 O   0  0  0  0  0  0
   15.4463   13.1928   36.1773 C   0  0  0  0  0  0
   14.9540   15.1772   29.2612 N   0  0  0  0  0  0
   14.7704   14.3966   35.9934 C   0  0  0  0  0  0
   16.1755   15.8277   31.6987 C   0  0  0  0  0  0
   15.1546   16.6292   31.1821 C   0  0  0  0  0  0
   16.5924   14.7030   30.9817 C   0  0  0  0  0  0
   19.1190   10.1778   35.3818 C   0  0  0  0  0  0
   15.9532   14.4147   29.7729 C   0  0  0  0  0  0
   14.5700   16.2703   29.9669 C   0  0  0  0  0  0
   14.4775   16.6848   34.9954 C   0  0  0  0  0  0
   13.2100   16.5622   34.1483 C   0  0  0  0  0  0
   19.8865   12.1880   33.9268 H   0  0  0  0  0  0
   15.0578   12.4447   36.8511 H   0  0  0  0  0  0
   13.8585   14.5775   36.5435 H   0  0  0  0  0  0
   14.8356   17.5220   31.6999 H   0  0  0  0  0  0
   17.3973   14.0773   31.3394 H   0  0  0  0  0  0
   18.7353    9.4175   34.7025 H   0  0  0  0  0  0
   20.1921   10.2698   35.2062 H   0  0  0  0  0  0
   18.9886    9.8274   36.4031 H   0  0  0  0  0  0
   16.2361   13.5487   29.1923 H   0  0  0  0  0  0
   13.7841   16.8721   29.5346 H   0  0  0  0  0  0
   14.1943   17.0149   35.9910 H   0  0  0  0  0  0
   15.0953   17.4978   34.6174 H   0  0  0  0  0  0
   12.6806   17.5128   34.0777 H   0  0  0  0  0  0
   13.4294   16.2293   33.1367 H   0  0  0  0  0  0
   12.5439   15.8267   34.5904 H   0  0  0  0  0  0
  1  2  1  0  0  0
  1  4  1  0  0  0
  1  6  2  0  0  0
  2 10  2  0  0  0
  2  3  1  0  0  0
  3  7  1  0  0  0
  3 22  1  0  0  0
  4  8  1  0  0  0
  4  9  2  0  0  0
  5  6  1  0  0  0
  5  7  2  0  0  0
  6 11  1  0  0  0
  7 17  1  0  0  0
  8 14  1  0  0  0
  9 20  1  0  0  0
  9 13  1  0  0  0
 11 13  2  0  0  0
 11 23  1  0  0  0
 12 18  1  0  0  0
 12 19  2  0  0  0
 13 24  1  0  0  0
 14 15  2  0  0  0
 14 16  1  0  0  0
 15 19  1  0  0  0
 15 25  1  0  0  0
 16 18  2  0  0  0
 16 26  1  0  0  0
 17 27  1  0  0  0
 17 28  1  0  0  0
 17 29  1  0  0  0
 18 30  1  0  0  0
 19 31  1  0  0  0
 20 21  1  0  0  0
 20 32  1  0  0  0
 20 33  1  0  0  0
 21 34  1  0  0  0
 21 35  1  0  0  0
 21 36  1  0  0  0
M  END
> <s_m_entry_id>
41230

> <s_m_entry_name>
dock_pv.347

> <s_m_Source_Path>
/home/csk/Desktop/cluster/DUD-E-result/tysy

> <s_m_Source_File>
dock_pv.maegz

> <i_m_Source_File_Index>
347

> <chembl_id>
CHEMBL351840

> <chembl_pref_name>
None

> <i_lp_mmshare_version>
53161

> <r_lp_tautomer_probability>
0.883938

> <s_lp_Force_Field>
OPLS_2005

> <r_lp_Energy>
22.558694

> <b_lp_Chiralities_Consistent>
1

> <s_lp_Variant>
CHEMBL1952_lig410-1

> <s_i_glide_gridfile>
glide-grid_1syn

> <i_i_glide_lignum>
802

> <i_i_glide_rotatable_bonds>
3

> <r_i_docking_score>
-7.50267026025096

> <r_i_glide_ligand_efficiency>
-0.357270012392903

> <r_i_glide_ligand_efficiency_sa>
-0.985680873686454

> <r_i_glide_ligand_efficiency_ln>
-1.85502006127429

> <r_i_glide_gscore>
-7.50267026025096

> <r_i_glide_lipo>
-3.7808132768987

> <r_i_glide_hbond>
-0.16

> <r_i_glide_metal>
0

> <r_i_glide_rewards>
-1.4481953030303

> <r_i_glide_evdw>
-40.7252197265625

> <r_i_glide_ecoul>
-2.45605421066284

> <r_i_glide_erotb>
0.414657038292167

> <r_i_glide_esite>
-0.12364960068658

> <r_i_glide_emodel>
-61.4466393023152

> <r_i_glide_energy>
-43.1812739372253

> <r_i_glide_einternal>
1.74790644645691

> <i_i_glide_confnum>
2

> <i_i_glide_posenum>
221

> <r_i_glide_eff_state_penalty>
0

> <s_user_duplicate_titles>
CHEMBL1952_lig410,273074

> <i_f3d_flags>
0

> <s_m_subgroup_title>
dock_pv

> <s_m_subgroupid>
dock_pv

> <b_m_subgroup_collapsed>
1

$$$$
CHEMBL1952_lig210
                    3D
 Schrodinger Suite 2021-1.
 60 62  0  0  1  0            999 V2000
   14.6633   16.5778   29.2280 N   0  0  0  0  0  0
   13.6891   17.3088   29.8311 C   0  0  0  0  0  0
   13.6016   17.3988   31.1092 N   0  0  0  0  0  0
   15.6854   15.9362   29.8402 C   0  0  0  0  0  0
   16.5881   15.4277   29.1914 O   0  0  0  0  0  0
   15.6095   16.0159   31.3459 C   0  0  0  0  0  0
   14.5689   16.7692   31.8993 C   0  0  0  0  0  0
   14.4885   16.9360   33.2733 C   0  0  0  0  0  0
   15.4663   16.3751   34.0909 C   0  0  0  0  0  0
   16.5270   15.6314   33.5479 C   0  0  0  0  0  0
   16.5872   15.4333   32.1617 C   0  0  0  0  0  0
   17.6753   15.1403   34.4366 C   0  0  0  0  0  0
   17.5700   13.7201   34.8423 N   0  0  0  0  0  0
   16.4382   13.2676   35.5905 C   0  0  0  0  0  0
   15.9835   11.9440   35.5178 C   0  0  0  0  0  0
   14.8644   11.5155   36.2134 C   0  0  0  0  0  0
   14.1353   12.4049   37.0145 C   0  0  0  0  0  0
   14.5907   13.7263   37.1173 C   0  0  0  0  0  0
   15.7262   14.1390   36.4194 C   0  0  0  0  0  0
   12.8793   11.9634   37.7393 C   0  0  0  0  0  0
   12.2440   12.7350   38.4609 O   0  0  0  0  0  0
   12.5133   10.6870   37.5200 N   0  0  0  0  0  0
   11.3738    9.9337   38.0519 C   0  0  1  0  0  0
   11.3937    8.5339   37.3682 C   0  0  0  0  0  0
   11.3195    9.8522   39.5981 C   0  0  0  0  0  0
   10.0892    9.4091   39.9885 O   0  0  0  0  0  0
   12.2344   10.1405   40.3442 O   0  0  0  0  0  0
   12.6209    7.6495   37.7129 C   0  0  0  0  0  0
   13.0208    6.7069   36.5764 C   0  0  0  0  0  0
   12.6068    5.4282   36.7909 O   0  0  0  0  0  0
   13.6730    7.0623   35.5997 O   0  0  0  0  0  0
   18.4739   12.7816   34.1378 C   0  0  0  0  0  0
   18.9921   11.6550   34.9484 C   0  0  0  0  0  0
   19.3674   10.6832   35.5873 C   0  0  0  0  0  0
   12.8268   17.9662   28.9868 O   0  0  0  0  0  0
   11.8332   18.8159   29.5685 C   0  0  0  0  0  0
   14.6841   16.5514   28.2225 H   0  0  0  0  0  0
   13.6906   17.5268   33.6991 H   0  0  0  0  0  0
   15.3933   16.5671   35.1492 H   0  0  0  0  0  0
   17.4108   14.8791   31.7294 H   0  0  0  0  0  0
   18.5916   15.2781   33.8601 H   0  0  0  0  0  0
   17.8184   15.8193   35.2793 H   0  0  0  0  0  0
   16.4488   11.2269   34.8648 H   0  0  0  0  0  0
   14.5741   10.4842   36.0787 H   0  0  0  0  0  0
   14.0757   14.4447   37.7412 H   0  0  0  0  0  0
   16.0739   15.1450   36.5573 H   0  0  0  0  0  0
   13.0993   10.1524   36.8986 H   0  0  0  0  0  0
   10.4841   10.4753   37.7237 H   0  0  0  0  0  0
   10.4875    7.9816   37.6208 H   0  0  0  0  0  0
   11.3283    8.6720   36.2865 H   0  0  0  0  0  0
    9.5109    9.2242   39.2469 H   0  0  0  0  0  0
   13.4973    8.2659   37.9122 H   0  0  0  0  0  0
   12.4446    7.0859   38.6296 H   0  0  0  0  0  0
   12.9242    4.8142   36.1134 H   0  0  0  0  0  0
   17.9588   12.3536   33.2772 H   0  0  0  0  0  0
   19.3549   13.2934   33.7440 H   0  0  0  0  0  0
   19.6885    9.8282   36.1352 H   0  0  0  0  0  0
   11.3919   19.4356   28.7915 H   0  0  0  0  0  0
   11.0343   18.2257   30.0171 H   0  0  0  0  0  0
   12.2280   19.5005   30.3210 H   0  0  0  0  0  0
  1  2  1  0  0  0
  1  4  1  0  0  0
  1 37  1  0  0  0
  2  3  2  0  0  0
  2 35  1  0  0  0
  3  7  1  0  0  0
  4  6  1  0  0  0
  4  5  2  0  0  0
  6 11  1  0  0  0
  6  7  2  0  0  0
  7  8  1  0  0  0
  8  9  2  0  0  0
  8 38  1  0  0  0
  9 10  1  0  0  0
  9 39  1  0  0  0
 10 11  2  0  0  0
 10 12  1  0  0  0
 11 40  1  0  0  0
 12 13  1  0  0  0
 12 41  1  0  0  0
 12 42  1  0  0  0
 13 14  1  0  0  0
 13 32  1  0  0  0
 14 19  1  0  0  0
 14 15  2  0  0  0
 15 16  1  0  0  0
 15 43  1  0  0  0
 16 17  2  0  0  0
 16 44  1  0  0  0
 17 18  1  0  0  0
 17 20  1  0  0  0
 18 19  2  0  0  0
 18 45  1  0  0  0
 19 46  1  0  0  0
 20 21  2  0  0  0
 20 22  1  0  0  0
 22 23  1  0  0  0
 22 47  1  0  0  0
 23 24  1  0  0  0
 23 25  1  0  0  0
 23 48  1  0  0  0
 24 28  1  0  0  0
 24 49  1  0  0  0
 24 50  1  0  0  0
 25 26  1  0  0  0
 25 27  2  0  0  0
 26 51  1  0  0  0
 28 29  1  0  0  0
 28 52  1  0  0  0
 28 53  1  0  0  0
 29 30  1  0  0  0
 29 31  2  0  0  0
 30 54  1  0  0  0
 32 33  1  0  0  0
 32 55  1  0  0  0
 32 56  1  0  0  0
 33 34  3  0  0  0
 34 57  1  0  0  0
 35 36  1  0  0  0
 36 58  1  0  0  0
 36 59  1  0  0  0
 36 60  1  0  0  0
M  END
> <s_m_entry_id>
41231

> <s_m_entry_name>
dock_pv.348

> <s_m_Source_Path>
/home/csk/Desktop/cluster/DUD-E-result/tysy

> <s_m_Source_File>
dock_pv.maegz

> <i_m_Source_File_Index>
348

> <chembl_id>
CHEMBL265098

> <chembl_pref_name>
None

> <i_lp_mmshare_version>
53161

> <r_lp_tautomer_probability>
0.883938

> <s_lp_Force_Field>
OPLS_2005

> <r_lp_Energy>
25.66988

> <b_lp_Chiralities_Consistent>
1

> <s_lp_Variant>
CHEMBL1952_lig210-1

> <s_i_glide_gridfile>
glide-grid_1syn

> <i_i_glide_lignum>
416

> <i_i_glide_rotatable_bonds>
15

> <r_i_docking_score>
-7.50142678999587

> <r_i_glide_ligand_efficiency>
-0.208372966388774

> <r_i_glide_ligand_efficiency_sa>
-0.688032374830238

> <r_i_glide_ligand_efficiency_ln>
-1.63660866044607

> <r_i_glide_gscore>
-7.50142678999587

> <r_i_glide_lipo>
-3.36061526196163

> <r_i_glide_hbond>
-0.257865048312445

> <r_i_glide_metal>
0

> <r_i_glide_rewards>
-0.712009378856383

> <r_i_glide_evdw>
-51.9728126525879

> <r_i_glide_ecoul>
-10.4670553207397

> <r_i_glide_erotb>
1.00759028566702

> <r_i_glide_esite>
-0.00982845579207005

> <r_i_glide_emodel>
-86.9128039213307

> <r_i_glide_energy>
-62.4398679733276

> <r_i_glide_einternal>
7.99370527267456

> <i_i_glide_confnum>
9

> <i_i_glide_posenum>
377

> <r_i_glide_eff_state_penalty>
0

> <s_user_duplicate_titles>
CHEMBL1952_lig210,170305

> <i_f3d_flags>
0

> <s_m_subgroup_title>
dock_pv

> <s_m_subgroupid>
dock_pv

> <b_m_subgroup_collapsed>
1

$$$$
CHEMBL1952_lig104
                    3D
 Schrodinger Suite 2021-1.
 61 63  0  0  1  0            999 V2000
   14.2187   17.5132   31.9994 C   0  0  0  0  0  0
   15.2971   16.4587   31.9106 C   0  0  0  0  0  0
   13.4604   17.6100   30.8855 N   0  0  0  0  0  0
   15.5996   15.8278   30.6948 C   0  0  0  0  0  0
   14.7981   16.0757   29.5700 N   0  0  0  0  0  0
   12.7417   12.7344   37.4480 C   0  0  0  0  0  0
   12.1797   11.5179   37.2923 N   0  0  0  0  0  0
   13.4457   16.5890   29.8181 C   0  0  1  0  0  0
   10.4964   11.3369   39.1974 C   0  0  0  0  0  0
   17.7775   13.6654   34.7585 N   0  0  0  0  0  0
   18.9921   11.5117   34.8935 C   0  0  0  0  0  0
   10.8340   11.0814   37.7068 C   0  0  1  0  0  0
   19.4113   10.6065   35.5909 C   0  0  0  0  0  0
   16.0841   16.1954   33.0398 C   0  0  0  0  0  0
   14.1044   12.9265   36.8176 C   0  0  0  0  0  0
    9.9457    9.8533   34.9044 C   0  0  0  0  0  0
   16.5701   13.3983   35.4801 C   0  0  0  0  0  0
   14.0544   18.2859   32.9397 O   0  0  0  0  0  0
   18.0075   15.0075   34.1937 C   0  0  0  0  0  0
   12.1837   13.6605   38.0393 O   0  0  0  0  0  0
   17.1359   15.2752   32.9677 C   0  0  0  0  0  0
    9.4228   11.7409   39.5908 O   0  0  0  0  0  0
   16.6291   14.8929   30.6253 C   0  0  0  0  0  0
    8.9999    9.1180   35.1736 O   0  0  0  0  0  0
   14.8139   11.8706   36.2348 C   0  0  0  0  0  0
   14.6741   14.2007   36.7786 C   0  0  0  0  0  0
   16.0218   12.1071   35.5904 C   0  0  0  0  0  0
   15.8724   14.4327   36.1129 C   0  0  0  0  0  0
    9.7602   11.6528   36.7330 C   0  0  0  0  0  0
    9.9840   11.3475   35.2327 C   0  0  0  0  0  0
   18.5062   12.6061   34.0435 C   0  0  0  0  0  0
   11.5598   11.0112   39.9902 O   0  0  0  0  0  0
   17.4057   14.6312   31.7523 C   0  0  0  0  0  0
   11.0773    9.4280   34.2767 O   0  0  0  0  0  0
   12.5072   15.4009   30.0981 C   0  0  0  0  0  0
   12.7508   18.3270   30.8844 H   0  0  0  0  0  0
   14.9449   15.5989   28.6921 H   0  0  0  0  0  0
   12.6868   10.8442   36.7402 H   0  0  0  0  0  0
   13.1284   17.0850   28.8992 H   0  0  0  0  0  0
   10.8253    9.9954   37.6079 H   0  0  0  0  0  0
   19.7917    9.8282   36.2077 H   0  0  0  0  0  0
   15.8831   16.7030   33.9736 H   0  0  0  0  0  0
   19.0495   15.1018   33.8819 H   0  0  0  0  0  0
   17.8896   15.7923   34.9364 H   0  0  0  0  0  0
   16.8444   14.3817   29.6979 H   0  0  0  0  0  0
   14.4406   10.8576   36.2391 H   0  0  0  0  0  0
   14.1914   15.0332   37.2594 H   0  0  0  0  0  0
   16.4791   11.2547   35.1212 H   0  0  0  0  0  0
   16.2448   15.4410   36.1189 H   0  0  0  0  0  0
    8.7728   11.2777   37.0115 H   0  0  0  0  0  0
    9.7040   12.7371   36.8510 H   0  0  0  0  0  0
    9.2026   11.8305   34.6455 H   0  0  0  0  0  0
   10.9232   11.7804   34.8890 H   0  0  0  0  0  0
   17.8707   12.1971   33.2625 H   0  0  0  0  0  0
   19.3925   12.9998   33.5427 H   0  0  0  0  0  0
   12.3186   10.7715   39.4545 H   0  0  0  0  0  0
   18.2237   13.9302   31.6685 H   0  0  0  0  0  0
   11.0122    8.4903   34.0080 H   0  0  0  0  0  0
   12.6405   15.0276   31.1129 H   0  0  0  0  0  0
   11.4639   15.6992   29.9931 H   0  0  0  0  0  0
   12.6806   14.5579   29.4283 H   0  0  0  0  0  0
  1  2  1  0  0  0
  1  3  1  0  0  0
  1 18  2  0  0  0
  2  4  2  0  0  0
  2 14  1  0  0  0
  3  8  1  0  0  0
  3 36  1  0  0  0
  4 23  1  0  0  0
  4  5  1  0  0  0
  5  8  1  0  0  0
  5 37  1  0  0  0
  6 15  1  0  0  0
  6  7  1  0  0  0
  6 20  2  0  0  0
  7 12  1  0  0  0
  7 38  1  0  0  0
  8 35  1  0  0  0
  8 39  1  0  0  0
  9 12  1  0  0  0
  9 22  2  0  0  0
  9 32  1  0  0  0
 10 19  1  0  0  0
 10 17  1  0  0  0
 10 31  1  0  0  0
 11 31  1  0  0  0
 11 13  3  0  0  0
 12 29  1  0  0  0
 12 40  1  0  0  0
 13 41  1  0  0  0
 14 21  2  0  0  0
 14 42  1  0  0  0
 15 26  1  0  0  0
 15 25  2  0  0  0
 16 30  1  0  0  0
 16 24  2  0  0  0
 16 34  1  0  0  0
 17 27  2  0  0  0
 17 28  1  0  0  0
 19 21  1  0  0  0
 19 43  1  0  0  0
 19 44  1  0  0  0
 21 33  1  0  0  0
 23 33  2  0  0  0
 23 45  1  0  0  0
 25 27  1  0  0  0
 25 46  1  0  0  0
 26 28  2  0  0  0
 26 47  1  0  0  0
 27 48  1  0  0  0
 28 49  1  0  0  0
 29 30  1  0  0  0
 29 50  1  0  0  0
 29 51  1  0  0  0
 30 52  1  0  0  0
 30 53  1  0  0  0
 31 54  1  0  0  0
 31 55  1  0  0  0
 32 56  1  0  0  0
 33 57  1  0  0  0
 34 58  1  0  0  0
 35 59  1  0  0  0
 35 60  1  0  0  0
 35 61  1  0  0  0
M  END
> <s_m_entry_id>
41233

> <s_m_entry_name>
dock_pv.350

> <s_m_Source_Path>
/home/csk/Desktop/cluster/DUD-E-result/tysy

> <s_m_Source_File>
dock_pv.maegz

> <i_m_Source_File_Index>
350

> <chembl_id>
CHEMBL330484

> <chembl_pref_name>
None

> <i_lp_mmshare_version>
53161

> <r_lp_tautomer_probability>
1

> <s_lp_Force_Field>
OPLS_2005

> <r_lp_Energy>
24.495456

> <b_lp_Chiralities_Consistent>
1

> <s_lp_Variant>
CHEMBL1952_lig104-1

> <s_i_glide_gridfile>
glide-grid_1syn

> <i_i_glide_lignum>
216

> <i_i_glide_rotatable_bonds>
14

> <r_i_docking_score>
-7.48886086120029

> <r_i_glide_ligand_efficiency>
-0.213967453177151

> <r_i_glide_ligand_efficiency_sa>
-0.699901726735169

> <r_i_glide_ligand_efficiency_ln>
-1.64397116534532

> <r_i_glide_gscore>
-7.48886086120029

> <r_i_glide_lipo>
-3.20498220435199

> <r_i_glide_hbond>
0

> <r_i_glide_metal>
0

> <r_i_glide_rewards>
-1.21856388600527

> <r_i_glide_evdw>
-50.4007797241211

> <r_i_glide_ecoul>
-10.6122856140137

> <r_i_glide_erotb>
1.06210332364591

> <r_i_glide_esite>
-0.0155362661808318

> <r_i_glide_emodel>
-85.7017751647973

> <r_i_glide_energy>
-61.0130653381348

> <r_i_glide_einternal>
6.80825662612915

> <i_i_glide_confnum>
96

> <i_i_glide_posenum>
2

> <r_i_glide_eff_state_penalty>
0

> <s_user_duplicate_titles>
CHEMBL1952_lig104

> <i_f3d_flags>
0

> <s_m_subgroup_title>
dock_pv

> <s_m_subgroupid>
dock_pv

> <b_m_subgroup_collapsed>
1

$$$$
CHEMBL1952_lig145
                    3D
 Schrodinger Suite 2021-1.
 37 39  0  0  1  0            999 V2000
   15.4572   13.9431   35.7568 N   0  0  0  0  0  0
   18.6867   12.5009   34.7910 N   0  0  0  0  0  0
   18.3976   11.1835   35.0771 C   0  0  0  0  0  0
   17.2581   10.8553   35.5893 N   0  0  0  0  0  0
   17.9083   13.6069   35.0026 C   0  0  0  0  0  0
   19.3920   10.2281   34.7983 N   0  0  0  0  0  0
   18.3319   14.7392   34.7866 O   0  0  0  0  0  0
   16.5925   13.1973   35.4891 C   0  0  0  0  0  0
   16.3400   11.8543   35.7677 C   0  0  0  0  0  0
   15.0200   11.7860   36.2037 C   0  0  0  0  0  0
   14.4777   13.0685   36.2039 C   0  0  0  0  0  0
   13.0922   13.5379   36.6020 C   0  0  0  0  0  0
   15.3148   15.3999   35.6468 C   0  0  0  0  0  0
   14.9932   16.0014   34.2758 C   0  0  0  0  0  0
   15.6795   15.6040   33.1244 C   0  0  0  0  0  0
   15.4262   16.2203   31.9051 C   0  0  0  0  0  0
   14.4895   17.2447   31.8120 C   0  0  0  0  0  0
   13.8066   17.6585   32.9633 C   0  0  0  0  0  0
   14.0576   17.0372   34.1861 C   0  0  0  0  0  0
   14.3442   17.8281   30.5719 O   0  0  0  0  0  0
   13.0481   18.2272   30.1319 C   0  0  0  0  0  0
   13.1563   18.5687   28.8486 F   0  0  0  0  0  0
   12.1868   17.2118   30.2044 F   0  0  0  0  0  0
   12.5907   19.2877   30.7974 F   0  0  0  0  0  0
   19.5828   12.6946   34.3665 H   0  0  0  0  0  0
   19.1774    9.2430   34.8028 H   0  0  0  0  0  0
   20.1556   10.4689   34.1753 H   0  0  0  0  0  0
   14.5087   10.8812   36.4941 H   0  0  0  0  0  0
   12.4030   12.7026   36.7297 H   0  0  0  0  0  0
   13.1078   14.0877   37.5439 H   0  0  0  0  0  0
   12.6514   14.1971   35.8523 H   0  0  0  0  0  0
   14.5902   15.7268   36.3893 H   0  0  0  0  0  0
   16.2396   15.8278   35.9936 H   0  0  0  0  0  0
   16.4144   14.8190   33.1483 H   0  0  0  0  0  0
   15.9689   15.9075   31.0254 H   0  0  0  0  0  0
   13.1002   18.4736   32.9365 H   0  0  0  0  0  0
   13.5384   17.3869   35.0667 H   0  0  0  0  0  0
  1 13  1  0  0  0
  1 11  1  0  0  0
  1  8  1  0  0  0
  2  3  1  0  0  0
  2  5  1  0  0  0
  2 25  1  0  0  0
  3  6  1  0  0  0
  3  4  2  0  0  0
  4  9  1  0  0  0
  5  7  2  0  0  0
  5  8  1  0  0  0
  6 26  1  0  0  0
  6 27  1  0  0  0
  8  9  2  0  0  0
  9 10  1  0  0  0
 10 11  2  0  0  0
 10 28  1  0  0  0
 11 12  1  0  0  0
 12 29  1  0  0  0
 12 30  1  0  0  0
 12 31  1  0  0  0
 13 14  1  0  0  0
 13 32  1  0  0  0
 13 33  1  0  0  0
 14 15  2  0  0  0
 14 19  1  0  0  0
 15 16  1  0  0  0
 15 34  1  0  0  0
 16 17  2  0  0  0
 16 35  1  0  0  0
 17 18  1  0  0  0
 17 20  1  0  0  0
 18 19  2  0  0  0
 18 36  1  0  0  0
 19 37  1  0  0  0
 20 21  1  0  0  0
 21 22  1  0  0  0
 21 23  1  0  0  0
 21 24  1  0  0  0
M  END
> <s_m_entry_id>
41234

> <s_m_entry_name>
dock_pv.351

> <s_m_Source_Path>
/home/csk/Desktop/cluster/DUD-E-result/tysy

> <s_m_Source_File>
dock_pv.maegz

> <i_m_Source_File_Index>
351

> <chembl_id>
CHEMBL253795

> <chembl_pref_name>
None

> <i_lp_mmshare_version>
53161

> <r_lp_tautomer_probability>
1

> <s_lp_Force_Field>
OPLS_2005

> <r_lp_Energy>
20.847673

> <b_lp_Chiralities_Consistent>
1

> <s_lp_Variant>
CHEMBL1952_lig145-1

> <s_i_glide_gridfile>
glide-grid_1syn

> <i_i_glide_lignum>
322

> <i_i_glide_rotatable_bonds>
4

> <r_i_docking_score>
-7.48704189165706

> <r_i_glide_ligand_efficiency>
-0.311960078819044

> <r_i_glide_ligand_efficiency_sa>
-0.899848578306408

> <r_i_glide_ligand_efficiency_ln>
-1.79199268263941

> <r_i_glide_gscore>
-7.48704189165706

> <r_i_glide_lipo>
-3.25257433651166

> <r_i_glide_hbond>
-0.156140875995612

> <r_i_glide_metal>
0

> <r_i_glide_rewards>
-1.796736916571

> <r_i_glide_evdw>
-40.496021270752

> <r_i_glide_ecoul>
-4.12713384628296

> <r_i_glide_erotb>
0.495734406221227

> <r_i_glide_esite>
-0.133453028319966

> <r_i_glide_emodel>
-64.3700350528281

> <r_i_glide_energy>
-44.6231551170349

> <r_i_glide_einternal>
1.08136332035065

> <i_i_glide_confnum>
3

> <i_i_glide_posenum>
146

> <r_i_glide_eff_state_penalty>
0

> <s_user_duplicate_titles>
CHEMBL1952_lig145

> <i_f3d_flags>
0

> <s_m_subgroup_title>
dock_pv

> <s_m_subgroupid>
dock_pv

> <b_m_subgroup_collapsed>
1

$$$$
CHEMBL1952_lig420
                    3D
 Schrodinger Suite 2021-1.
 40 42  0  0  1  0            999 V2000
   14.8374   17.5113   32.7624 C   0  0  0  0  0  0
   15.3847   16.4846   31.8999 C   0  0  0  0  0  0
   13.7874   18.2753   32.3903 N   0  0  0  0  0  0
   13.2503   18.0567   31.1822 C   0  0  0  0  0  0
   13.6362   17.1254   30.2932 N   0  0  0  0  0  0
   16.5179   15.6033   32.1222 C   0  0  0  0  0  0
   14.6946   16.3470   30.6463 C   0  0  0  0  0  0
   15.7053   13.1008   35.9914 C   0  0  0  0  0  0
   15.9783   14.2797   35.2748 C   0  0  0  0  0  0
   17.4997   15.8278   33.5964 S   0  0  0  0  0  0
   16.5924   12.0613   35.9785 N   0  0  0  0  0  0
   17.1631   14.3790   34.5448 C   0  0  0  0  0  0
   16.9005   14.6613   31.1562 C   0  0  0  0  0  0
   15.3919   17.7170   33.9909 O   0  0  0  0  0  0
   14.4946   12.9422   36.7197 N   0  0  0  0  0  0
   15.1083   15.3846   29.7023 C   0  0  0  0  0  0
   12.1921   18.8728   30.8315 N   0  0  0  0  0  0
   16.1896   14.5600   29.9675 C   0  0  0  0  0  0
   17.7548   12.1856   35.2908 C   0  0  0  0  0  0
   18.0836   13.3328   34.5766 C   0  0  0  0  0  0
   14.2985   11.7517   37.5482 C   0  0  0  0  0  0
   13.6605   14.1066   37.0138 C   0  0  0  0  0  0
   18.1081   13.7572   31.3414 C   0  0  0  0  0  0
   15.2829   15.1037   35.2578 H   0  0  0  0  0  0
   16.1449   17.1323   34.1166 H   0  0  0  0  0  0
   14.5814   15.2954   28.7628 H   0  0  0  0  0  0
   11.6896   18.7193   29.9703 H   0  0  0  0  0  0
   11.8969   19.5707   31.4952 H   0  0  0  0  0  0
   16.4834   13.8334   29.2227 H   0  0  0  0  0  0
   18.4326   11.3445   35.3232 H   0  0  0  0  0  0
   19.0222   13.3908   34.0435 H   0  0  0  0  0  0
   14.9885   11.7691   38.3910 H   0  0  0  0  0  0
   13.2806   11.6841   37.9337 H   0  0  0  0  0  0
   14.5064   10.8435   36.9811 H   0  0  0  0  0  0
   14.2172   14.8215   37.6211 H   0  0  0  0  0  0
   13.3543   14.6162   36.0995 H   0  0  0  0  0  0
   12.7576   13.8353   37.5617 H   0  0  0  0  0  0
   18.9367   14.2688   31.8306 H   0  0  0  0  0  0
   17.8421   12.8696   31.9140 H   0  0  0  0  0  0
   18.5061   13.4279   30.3910 H   0  0  0  0  0  0
  1  2  1  0  0  0
  1  3  2  0  0  0
  1 14  1  0  0  0
  2  6  2  0  0  0
  2  7  1  0  0  0
  3  4  1  0  0  0
  4  5  2  0  0  0
  4 17  1  0  0  0
  5  7  1  0  0  0
  6 10  1  0  0  0
  6 13  1  0  0  0
  7 16  2  0  0  0
  8  9  1  0  0  0
  8 15  1  0  0  0
  8 11  2  0  0  0
  9 12  2  0  0  0
  9 24  1  0  0  0
 10 12  1  0  0  0
 11 19  1  0  0  0
 12 20  1  0  0  0
 13 23  1  0  0  0
 13 18  2  0  0  0
 14 25  1  0  0  0
 15 21  1  0  0  0
 15 22  1  0  0  0
 16 18  1  0  0  0
 16 26  1  0  0  0
 17 27  1  0  0  0
 17 28  1  0  0  0
 18 29  1  0  0  0
 19 20  2  0  0  0
 19 30  1  0  0  0
 20 31  1  0  0  0
 21 32  1  0  0  0
 21 33  1  0  0  0
 21 34  1  0  0  0
 22 35  1  0  0  0
 22 36  1  0  0  0
 22 37  1  0  0  0
 23 38  1  0  0  0
 23 39  1  0  0  0
 23 40  1  0  0  0
M  END
> <s_m_entry_id>
41235

> <s_m_entry_name>
dock_pv.352

> <s_m_Source_Path>
/home/csk/Desktop/cluster/DUD-E-result/tysy

> <s_m_Source_File>
dock_pv.maegz

> <i_m_Source_File_Index>
352

> <chembl_id>
CHEMBL351606

> <chembl_pref_name>
None

> <i_lp_mmshare_version>
53161

> <r_lp_tautomer_probability>
1

> <s_lp_Force_Field>
OPLS_2005

> <r_lp_Energy>
15.774719

> <b_lp_Chiralities_Consistent>
1

> <s_lp_Variant>
CHEMBL1952_lig420-1

> <s_i_glide_gridfile>
glide-grid_1syn

> <i_i_glide_lignum>
817

> <i_i_glide_rotatable_bonds>
4

> <r_i_docking_score>
-7.48552994218836

> <r_i_glide_ligand_efficiency>
-0.325457823573407

> <r_i_glide_ligand_efficiency_sa>
-0.925558756827407

> <r_i_glide_ligand_efficiency_ln>
-1.81006901505399

> <r_i_glide_gscore>
-7.48552994218836

> <r_i_glide_lipo>
-3.55385845478848

> <r_i_glide_hbond>
0

> <r_i_glide_metal>
0

> <r_i_glide_rewards>
-1.72470502817581

> <r_i_glide_evdw>
-44.2377052307129

> <r_i_glide_ecoul>
-2.10965251922607

> <r_i_glide_erotb>
0.350163590402104

> <r_i_glide_esite>
-0.028796910206616

> <r_i_glide_emodel>
-66.3924481574029

> <r_i_glide_energy>
-46.347357749939

> <r_i_glide_einternal>
1.74765455722809

> <i_i_glide_confnum>
1

> <i_i_glide_posenum>
19

> <r_i_glide_eff_state_penalty>
0

> <s_user_duplicate_titles>
CHEMBL1952_lig420,272764

> <i_f3d_flags>
0

> <s_m_subgroup_title>
dock_pv

> <s_m_subgroupid>
dock_pv

> <b_m_subgroup_collapsed>
1

$$$$
CHEMBL1952_lig356
                    3D
 Schrodinger Suite 2021-1.
 53 56  0  0  1  0            999 V2000
   12.8863   12.4442   38.0698 S   0  0  0  0  0  0
   14.2211   17.9737   32.5725 C   0  0  0  0  0  0
   15.2006   16.8563   32.3367 C   0  0  0  0  0  0
   13.4569   18.2321   31.4904 N   0  0  0  0  0  0
   14.3676   16.6800   30.0405 N   0  0  0  0  0  0
   15.2319   16.2630   31.0700 C   0  0  0  0  0  0
   13.5366   17.6354   30.2640 C   0  0  0  0  0  0
   14.2848   12.8342   37.0274 C   0  0  0  0  0  0
   17.7295   13.6673   34.6774 N   0  0  0  0  0  0
   18.9919   11.5289   34.8653 C   0  0  0  0  0  0
   19.3765   10.6265   35.5899 C   0  0  0  0  0  0
   16.0762   16.4526   33.3410 C   0  0  0  0  0  0
   13.2907   11.3253   38.9286 O   0  0  0  0  0  0
   12.3930   13.6958   38.6554 O   0  0  0  0  0  0
   11.6385   11.8268   36.9406 C   0  0  0  0  0  0
   16.5520   13.3802   35.4391 C   0  0  0  0  0  0
   14.1231   18.6278   33.6032 O   0  0  0  0  0  0
   17.9836   15.0259   34.1760 C   0  0  0  0  0  0
   16.9990   15.4366   33.0836 C   0  0  0  0  0  0
   16.1542   15.2516   30.8111 C   0  0  0  0  0  0
   14.9543   11.7967   36.3886 C   0  0  0  0  0  0
   14.7124   14.1470   36.8520 C   0  0  0  0  0  0
   16.0558   12.0740   35.5913 C   0  0  0  0  0  0
   15.8400   14.4073   36.0773 C   0  0  0  0  0  0
   18.5145   12.6236   33.9980 C   0  0  0  0  0  0
   17.0380   14.8407   31.8132 C   0  0  0  0  0  0
   12.5991   18.1227   29.1909 C   0  0  0  0  0  0
   10.6036   12.6623   36.5124 C   0  0  0  0  0  0
   11.7202   10.5102   36.4788 C   0  0  0  0  0  0
   10.7796   10.0336   35.5708 C   0  0  0  0  0  0
    9.6517   12.1746   35.6197 C   0  0  0  0  0  0
    9.7487   10.8679   35.1465 C   0  0  0  0  0  0
   19.7040    9.8288   36.2163 H   0  0  0  0  0  0
   16.0375   16.9269   34.3107 H   0  0  0  0  0  0
   12.8051   18.9875   31.6216 H   0  0  0  0  0  0
   18.9841   15.0980   33.7464 H   0  0  0  0  0  0
   17.9977   15.7436   34.9949 H   0  0  0  0  0  0
   16.1846   14.7876   29.8365 H   0  0  0  0  0  0
   14.6280   10.7734   36.5028 H   0  0  0  0  0  0
   14.2071   14.9645   37.3448 H   0  0  0  0  0  0
   16.4994   11.2312   35.0927 H   0  0  0  0  0  0
   16.1615   15.4295   36.0150 H   0  0  0  0  0  0
   17.9218   12.2179   33.1820 H   0  0  0  0  0  0
   19.4121   13.0319   33.5322 H   0  0  0  0  0  0
   17.7590   14.0637   31.5979 H   0  0  0  0  0  0
   13.0288   17.9768   28.1964 H   0  0  0  0  0  0
   11.6501   17.5855   29.2298 H   0  0  0  0  0  0
   12.3831   19.1895   29.2985 H   0  0  0  0  0  0
   10.5356   13.6825   36.8615 H   0  0  0  0  0  0
   12.5136    9.8565   36.8131 H   0  0  0  0  0  0
   10.8448    9.0236   35.1964 H   0  0  0  0  0  0
    8.8439   12.8107   35.2869 H   0  0  0  0  0  0
    9.0179   10.4969   34.4426 H   0  0  0  0  0  0
  1  8  1  0  0  0
  1 13  2  0  0  0
  1 14  2  0  0  0
  1 15  1  0  0  0
  2 17  2  0  0  0
  2  3  1  0  0  0
  2  4  1  0  0  0
  3 12  1  0  0  0
  3  6  2  0  0  0
  4  7  1  0  0  0
  4 35  1  0  0  0
  5  6  1  0  0  0
  5  7  2  0  0  0
  6 20  1  0  0  0
  7 27  1  0  0  0
  8 21  1  0  0  0
  8 22  2  0  0  0
  9 16  1  0  0  0
  9 18  1  0  0  0
  9 25  1  0  0  0
 10 25  1  0  0  0
 10 11  3  0  0  0
 11 33  1  0  0  0
 12 34  1  0  0  0
 12 19  2  0  0  0
 15 28  2  0  0  0
 15 29  1  0  0  0
 16 24  2  0  0  0
 16 23  1  0  0  0
 18 36  1  0  0  0
 18 37  1  0  0  0
 18 19  1  0  0  0
 19 26  1  0  0  0
 20 26  2  0  0  0
 20 38  1  0  0  0
 21 23  2  0  0  0
 21 39  1  0  0  0
 22 24  1  0  0  0
 22 40  1  0  0  0
 23 41  1  0  0  0
 24 42  1  0  0  0
 25 43  1  0  0  0
 25 44  1  0  0  0
 26 45  1  0  0  0
 27 46  1  0  0  0
 27 47  1  0  0  0
 27 48  1  0  0  0
 28 31  1  0  0  0
 28 49  1  0  0  0
 29 30  2  0  0  0
 29 50  1  0  0  0
 30 32  1  0  0  0
 30 51  1  0  0  0
 31 32  2  0  0  0
 31 52  1  0  0  0
 32 53  1  0  0  0
M  END
> <s_m_entry_id>
41236

> <s_m_entry_name>
dock_pv.353

> <s_m_Source_Path>
/home/csk/Desktop/cluster/DUD-E-result/tysy

> <s_m_Source_File>
dock_pv.maegz

> <i_m_Source_File_Index>
353

> <chembl_id>
CHEMBL417222

> <chembl_pref_name>
None

> <i_lp_mmshare_version>
53161

> <r_lp_tautomer_probability>
0.883938

> <s_lp_Force_Field>
OPLS_2005

> <r_lp_Energy>
23.638833

> <b_lp_Chiralities_Consistent>
1

> <s_lp_Variant>
CHEMBL1952_lig356-1

> <s_i_glide_gridfile>
glide-grid_1syn

> <i_i_glide_lignum>
667

> <i_i_glide_rotatable_bonds>
7

> <r_i_docking_score>
-7.48533410331734

> <r_i_glide_ligand_efficiency>
-0.233916690728667

> <r_i_glide_ligand_efficiency_sa>
-0.742639201013281

> <r_i_glide_ligand_efficiency_ln>
-1.6761703482341

> <r_i_glide_gscore>
-7.48533410331734

> <r_i_glide_lipo>
-3.88659581508455

> <r_i_glide_hbond>
0

> <r_i_glide_metal>
0

> <r_i_glide_rewards>
-0.934014557755331

> <r_i_glide_evdw>
-55.0303649902344

> <r_i_glide_ecoul>
-4.16429996490479

> <r_i_glide_erotb>
0.71143951376998

> <r_i_glide_esite>
0

> <r_i_glide_emodel>
-86.7746386759004

> <r_i_glide_energy>
-59.1946649551392

> <r_i_glide_einternal>
2.06202006340027

> <i_i_glide_confnum>
13

> <i_i_glide_posenum>
159

> <r_i_glide_eff_state_penalty>
0

> <s_user_duplicate_titles>
CHEMBL1952_lig356,CHEMBL1952_lig356,90633

> <i_f3d_flags>
0

> <s_m_subgroup_title>
dock_pv

> <s_m_subgroupid>
dock_pv

> <b_m_subgroup_collapsed>
1

$$$$
CHEMBL1952_lig117
                    3D
 Schrodinger Suite 2021-1.
 31 33  0  0  1  0            999 V2000
   14.9149   16.7999   31.7905 C   0  0  0  0  0  0
   14.4949   16.3138   30.5241 C   0  0  0  0  0  0
   13.4812   16.7810   29.7967 N   0  0  0  0  0  0
   16.0622   16.0136   32.1756 C   0  0  0  0  0  0
   14.1544   17.8737   32.3094 C   0  0  0  0  0  0
   13.1116   18.3671   31.5945 N   0  0  0  0  0  0
   12.8427   17.8116   30.3927 C   0  0  0  0  0  0
   15.3283   15.2801   30.1809 N   0  0  0  0  0  0
   16.2705   15.0881   31.1625 C   0  0  0  0  0  0
   17.0731   16.2270   33.5910 S   0  0  0  0  0  0
   14.5037   18.3797   33.5298 O   0  0  0  0  0  0
   16.6338   14.8047   34.5273 C   0  0  0  0  0  0
   17.4585   13.6770   34.5058 C   0  0  0  0  0  0
   11.7920   18.3481   29.6797 N   0  0  0  0  0  0
   17.1112   12.5482   35.2478 C   0  0  0  0  0  0
   17.3063   14.0020   31.0193 C   0  0  0  0  0  0
   18.2123   10.9951   35.1911 Br  0  0  0  0  0  0
   15.1365   13.6884   36.0577 C   0  0  0  0  0  0
   15.4765   14.8148   35.3071 C   0  0  0  0  0  0
   15.9510   12.5543   36.0238 C   0  0  0  0  0  0
   15.2895   14.7213   29.3427 H   0  0  0  0  0  0
   13.9166   19.1015   33.7772 H   0  0  0  0  0  0
   18.3584   13.6704   33.9065 H   0  0  0  0  0  0
   11.5656   17.9430   28.7906 H   0  0  0  0  0  0
   11.1766   19.0295   30.1107 H   0  0  0  0  0  0
   18.2961   14.3395   31.3294 H   0  0  0  0  0  0
   17.0595   13.1295   31.6230 H   0  0  0  0  0  0
   17.3919   13.6572   29.9913 H   0  0  0  0  0  0
   14.2420   13.6952   36.6622 H   0  0  0  0  0  0
   14.8476   15.6932   35.3330 H   0  0  0  0  0  0
   15.6846   11.6814   36.6009 H   0  0  0  0  0  0
  1  2  1  0  0  0
  1  4  1  0  0  0
  1  5  2  0  0  0
  2  3  2  0  0  0
  2  8  1  0  0  0
  3  7  1  0  0  0
  4  9  2  0  0  0
  4 10  1  0  0  0
  5  6  1  0  0  0
  5 11  1  0  0  0
  6  7  2  0  0  0
  7 14  1  0  0  0
  8  9  1  0  0  0
  8 21  1  0  0  0
  9 16  1  0  0  0
 10 12  1  0  0  0
 11 22  1  0  0  0
 12 13  2  0  0  0
 12 19  1  0  0  0
 13 15  1  0  0  0
 13 23  1  0  0  0
 14 24  1  0  0  0
 14 25  1  0  0  0
 15 17  1  0  0  0
 15 20  2  0  0  0
 16 26  1  0  0  0
 16 27  1  0  0  0
 16 28  1  0  0  0
 18 19  2  0  0  0
 18 20  1  0  0  0
 18 29  1  0  0  0
 19 30  1  0  0  0
 20 31  1  0  0  0
M  END
> <s_m_entry_id>
41237

> <s_m_entry_name>
dock_pv.354

> <s_m_Source_Path>
/home/csk/Desktop/cluster/DUD-E-result/tysy

> <s_m_Source_File>
dock_pv.maegz

> <i_m_Source_File_Index>
354

> <chembl_id>
CHEMBL364975

> <chembl_pref_name>
None

> <i_lp_mmshare_version>
53161

> <r_lp_tautomer_probability>
1

> <s_lp_Force_Field>
OPLS_2005

> <r_lp_Energy>
2.355896

> <b_lp_Chiralities_Consistent>
1

> <s_lp_Variant>
CHEMBL1952_lig117-1

> <s_i_glide_gridfile>
glide-grid_1syn

> <i_i_glide_lignum>
294

> <i_i_glide_rotatable_bonds>
3

> <r_i_docking_score>
-7.48458986575421

> <r_i_glide_ligand_efficiency>
-0.37422949328771

> <r_i_glide_ligand_efficiency_sa>
-1.01581512821518

> <r_i_glide_ligand_efficiency_ln>
-1.87314598510302

> <r_i_glide_gscore>
-7.48458986575421

> <r_i_glide_lipo>
-2.94458946690924

> <r_i_glide_hbond>
-0.305600448245113

> <r_i_glide_metal>
0

> <r_i_glide_rewards>
-1.68065790261129

> <r_i_glide_evdw>
-41.1169624328613

> <r_i_glide_ecoul>
-4.99896669387817

> <r_i_glide_erotb>
0.309188046174423

> <r_i_glide_esite>
-0.0572369684381965

> <r_i_glide_emodel>
-65.901221344954

> <r_i_glide_energy>
-46.1159291267395

> <r_i_glide_einternal>
2.89478182792664

> <i_i_glide_confnum>
3

> <i_i_glide_posenum>
389

> <r_i_glide_eff_state_penalty>
0

> <s_user_duplicate_titles>
CHEMBL1952_lig117

> <i_f3d_flags>
0

> <s_m_subgroup_title>
dock_pv

> <s_m_subgroupid>
dock_pv

> <b_m_subgroup_collapsed>
1

$$$$
CHEMBL1952_lig126
                    3D
 Schrodinger Suite 2021-1.
 31 33  0  0  1  0            999 V2000
   14.8831   16.7827   31.7873 C   0  0  0  0  0  0
   14.4472   16.3115   30.5217 C   0  0  0  0  0  0
   13.4452   16.8026   29.7947 N   0  0  0  0  0  0
   16.0168   15.9703   32.1728 C   0  0  0  0  0  0
   14.1479   17.8765   32.3057 C   0  0  0  0  0  0
   13.1148   18.3949   31.5931 N   0  0  0  0  0  0
   12.8310   17.8464   30.3914 C   0  0  0  0  0  0
   15.2525   15.2627   30.1724 N   0  0  0  0  0  0
   16.1920   15.0369   31.1490 C   0  0  0  0  0  0
   17.0344   16.2283   33.5909 S   0  0  0  0  0  0
   16.5220   12.8133   35.6935 C   0  0  0  0  0  0
   16.3557   14.1060   35.1909 C   0  0  0  0  0  0
   14.5118   18.3735   33.5263 O   0  0  0  0  0  0
   17.2652   14.6148   34.2618 C   0  0  0  0  0  0
   17.6152   12.0389   35.2805 C   0  0  0  0  0  0
   11.7920   18.4074   29.6786 N   0  0  0  0  0  0
   18.5485   12.5753   34.3937 C   0  0  0  0  0  0
   15.3552   12.1933   36.8076 Cl  0  0  0  0  0  0
   18.3875   13.8683   33.9016 C   0  0  0  0  0  0
   17.8632   10.2531   35.9017 Br  0  0  0  0  0  0
   17.1804   13.9171   30.9527 C   0  0  0  0  0  0
   15.1961   14.7088   29.3313 H   0  0  0  0  0  0
   15.5068   14.7011   35.4962 H   0  0  0  0  0  0
   13.9360   19.1038   33.7781 H   0  0  0  0  0  0
   11.5525   18.0060   28.7898 H   0  0  0  0  0  0
   11.1755   19.0808   30.1201 H   0  0  0  0  0  0
   19.3919   11.9824   34.0728 H   0  0  0  0  0  0
   19.1160   14.2684   33.2107 H   0  0  0  0  0  0
   18.2117   14.2662   31.0038 H   0  0  0  0  0  0
   17.0545   13.1326   31.6971 H   0  0  0  0  0  0
   17.0562   13.4272   29.9909 H   0  0  0  0  0  0
  1  2  1  0  0  0
  1  4  1  0  0  0
  1  5  2  0  0  0
  2  3  2  0  0  0
  2  8  1  0  0  0
  3  7  1  0  0  0
  4  9  2  0  0  0
  4 10  1  0  0  0
  5  6  1  0  0  0
  5 13  1  0  0  0
  6  7  2  0  0  0
  7 16  1  0  0  0
  8  9  1  0  0  0
  8 22  1  0  0  0
  9 21  1  0  0  0
 10 14  1  0  0  0
 11 12  1  0  0  0
 11 18  1  0  0  0
 11 15  2  0  0  0
 12 14  2  0  0  0
 12 23  1  0  0  0
 13 24  1  0  0  0
 14 19  1  0  0  0
 15 17  1  0  0  0
 15 20  1  0  0  0
 16 25  1  0  0  0
 16 26  1  0  0  0
 17 19  2  0  0  0
 17 27  1  0  0  0
 19 28  1  0  0  0
 21 29  1  0  0  0
 21 30  1  0  0  0
 21 31  1  0  0  0
M  END
> <s_m_entry_id>
41238

> <s_m_entry_name>
dock_pv.355

> <s_m_Source_Path>
/home/csk/Desktop/cluster/DUD-E-result/tysy

> <s_m_Source_File>
dock_pv.maegz

> <i_m_Source_File_Index>
355

> <chembl_id>
CHEMBL372371

> <chembl_pref_name>
None

> <i_lp_mmshare_version>
53161

> <r_lp_tautomer_probability>
1

> <s_lp_Force_Field>
OPLS_2005

> <r_lp_Energy>
1.723172

> <b_lp_Chiralities_Consistent>
1

> <s_lp_Variant>
CHEMBL1952_lig126-1

> <s_i_glide_gridfile>
glide-grid_1syn

> <i_i_glide_lignum>
303

> <i_i_glide_rotatable_bonds>
3

> <r_i_docking_score>
-7.48276656497043

> <r_i_glide_ligand_efficiency>
-0.356322217379544

> <r_i_glide_ligand_efficiency_sa>
-0.983065979112498

> <r_i_glide_ligand_efficiency_ln>
-1.85009891283539

> <r_i_glide_gscore>
-7.48276656497043

> <r_i_glide_lipo>
-2.88220010844837

> <r_i_glide_hbond>
-0.297352000646308

> <r_i_glide_metal>
0

> <r_i_glide_rewards>
-1.43856075807492

> <r_i_glide_evdw>
-40.9878730773926

> <r_i_glide_ecoul>
-6.76145887374878

> <r_i_glide_erotb>
0.261603889764778

> <r_i_glide_esite>
-0.0626451026336573

> <r_i_glide_emodel>
-68.1881596400968

> <r_i_glide_energy>
-47.7493319511414

> <r_i_glide_einternal>
4.13755321502686

> <i_i_glide_confnum>
2

> <i_i_glide_posenum>
360

> <r_i_glide_eff_state_penalty>
0

> <s_user_duplicate_titles>
CHEMBL1952_lig126,325467

> <i_f3d_flags>
0

> <s_m_subgroup_title>
dock_pv

> <s_m_subgroupid>
dock_pv

> <b_m_subgroup_collapsed>
1

$$$$
CHEMBL1952_lig214
                    3D
 Schrodinger Suite 2021-1.
 60 62  0  0  1  0            999 V2000
   14.4889   16.7300   29.3905 N   0  0  0  0  0  0
   13.6840   17.5527   29.9444 C   0  0  0  0  0  0
   13.5810   17.7553   31.3054 N   0  0  0  0  0  0
   15.3914   15.9565   30.1336 C   0  0  0  0  0  0
   16.1917   15.1566   29.6541 O   0  0  0  0  0  0
   15.3626   16.1810   31.6408 C   0  0  0  0  0  0
   14.4243   17.0689   32.1818 C   0  0  0  0  0  0
   14.3587   17.2810   33.5526 C   0  0  0  0  0  0
   15.2628   16.6285   34.3890 C   0  0  0  0  0  0
   16.2498   15.7813   33.8661 C   0  0  0  0  0  0
   16.2807   15.5370   32.4860 C   0  0  0  0  0  0
   17.3364   15.2316   34.8000 C   0  0  0  0  0  0
   17.5935   13.7882   34.6720 N   0  0  0  0  0  0
   16.6975   12.8655   35.2886 C   0  0  0  0  0  0
   15.5575   13.2984   35.9907 C   0  0  0  0  0  0
   14.6251   12.3994   36.4988 C   0  0  0  0  0  0
   14.7951   11.0221   36.3213 C   0  0  0  0  0  0
   15.9618   10.5711   35.6884 C   0  0  0  0  0  0
   16.8978   11.4797   35.1934 C   0  0  0  0  0  0
   13.7145   10.0578   36.7416 C   0  0  0  0  0  0
   13.4334    9.0833   36.0435 O   0  0  0  0  0  0
   13.0743   10.3538   37.8872 N   0  0  0  0  0  0
   11.9095    9.6510   38.4430 C   0  0  1  0  0  0
   12.2185    8.1695   38.8308 C   0  0  0  0  0  0
   11.2776   10.4668   39.5932 C   0  0  0  0  0  0
   10.0555    9.9478   39.9138 O   0  0  0  0  0  0
   11.7984   11.4260   40.1268 O   0  0  0  0  0  0
   13.2279    7.9255   39.9804 C   0  0  0  0  0  0
   14.6854    8.1633   39.5914 C   0  0  0  0  0  0
   15.1135    7.3083   38.6213 O   0  0  0  0  0  0
   15.3917    9.0281   40.1008 O   0  0  0  0  0  0
   12.7734   18.3762   29.0660 C   0  0  0  0  0  0
   16.1895    9.2499   35.5105 F   0  0  0  0  0  0
   18.7392   13.2815   33.8870 C   0  0  0  0  0  0
   19.7376   14.3235   33.3532 C   0  0  0  0  0  0
   12.9302   18.4332   31.6661 H   0  0  0  0  0  0
   13.6334   17.9657   33.9678 H   0  0  0  0  0  0
   15.2173   16.8161   35.4513 H   0  0  0  0  0  0
   17.0324   14.8734   32.0786 H   0  0  0  0  0  0
   17.0962   15.4280   35.8445 H   0  0  0  0  0  0
   18.2336   15.8219   34.6237 H   0  0  0  0  0  0
   15.3343   14.3439   36.1223 H   0  0  0  0  0  0
   13.7423   12.7970   36.9792 H   0  0  0  0  0  0
   17.7607   11.0715   34.6917 H   0  0  0  0  0  0
   13.3908   11.1447   38.4286 H   0  0  0  0  0  0
   11.1705    9.6375   37.6384 H   0  0  0  0  0  0
   12.5400    7.6243   37.9429 H   0  0  0  0  0  0
   11.2853    7.6714   39.0991 H   0  0  0  0  0  0
    9.8123    9.2033   39.3608 H   0  0  0  0  0  0
   13.1468    6.8938   40.3246 H   0  0  0  0  0  0
   12.9860    8.5456   40.8438 H   0  0  0  0  0  0
   14.4239    6.7232   38.3019 H   0  0  0  0  0  0
   12.9923   18.2294   28.0072 H   0  0  0  0  0  0
   11.7285   18.1156   29.2323 H   0  0  0  0  0  0
   12.8909   19.4389   29.2760 H   0  0  0  0  0  0
   19.3037   12.5754   34.4981 H   0  0  0  0  0  0
   18.3567   12.7021   33.0438 H   0  0  0  0  0  0
   20.5398   13.8355   32.7994 H   0  0  0  0  0  0
   19.2670   15.0270   32.6681 H   0  0  0  0  0  0
   20.2001   14.8805   34.1674 H   0  0  0  0  0  0
  1  2  2  0  0  0
  1  4  1  0  0  0
  2  3  1  0  0  0
  2 32  1  0  0  0
  3  7  1  0  0  0
  3 36  1  0  0  0
  4  5  2  0  0  0
  4  6  1  0  0  0
  6 11  1  0  0  0
  6  7  2  0  0  0
  7  8  1  0  0  0
  8  9  2  0  0  0
  8 37  1  0  0  0
  9 10  1  0  0  0
  9 38  1  0  0  0
 10 11  2  0  0  0
 10 12  1  0  0  0
 11 39  1  0  0  0
 12 13  1  0  0  0
 12 40  1  0  0  0
 12 41  1  0  0  0
 13 14  1  0  0  0
 13 34  1  0  0  0
 14 19  1  0  0  0
 14 15  2  0  0  0
 15 16  1  0  0  0
 15 42  1  0  0  0
 16 17  2  0  0  0
 16 43  1  0  0  0
 17 18  1  0  0  0
 17 20  1  0  0  0
 18 19  2  0  0  0
 18 33  1  0  0  0
 19 44  1  0  0  0
 20 21  2  0  0  0
 20 22  1  0  0  0
 22 23  1  0  0  0
 22 45  1  0  0  0
 23 24  1  0  0  0
 23 25  1  0  0  0
 23 46  1  0  0  0
 24 28  1  0  0  0
 24 47  1  0  0  0
 24 48  1  0  0  0
 25 26  1  0  0  0
 25 27  2  0  0  0
 26 49  1  0  0  0
 28 29  1  0  0  0
 28 50  1  0  0  0
 28 51  1  0  0  0
 29 30  1  0  0  0
 29 31  2  0  0  0
 30 52  1  0  0  0
 32 53  1  0  0  0
 32 54  1  0  0  0
 32 55  1  0  0  0
 34 35  1  0  0  0
 34 56  1  0  0  0
 34 57  1  0  0  0
 35 58  1  0  0  0
 35 59  1  0  0  0
 35 60  1  0  0  0
M  END
> <s_m_entry_id>
41240

> <s_m_entry_name>
dock_pv.357

> <s_m_Source_Path>
/home/csk/Desktop/cluster/DUD-E-result/tysy

> <s_m_Source_File>
dock_pv.maegz

> <i_m_Source_File_Index>
357

> <chembl_id>
CHEMBL104856

> <chembl_pref_name>
None

> <i_lp_mmshare_version>
53161

> <r_lp_tautomer_probability>
0.116051

> <s_lp_Force_Field>
OPLS_2005

> <r_lp_Energy>
23.817135

> <b_lp_Chiralities_Consistent>
1

> <s_lp_Variant>
CHEMBL1952_lig214-2

> <s_i_glide_gridfile>
glide-grid_1syn

> <i_i_glide_lignum>
425

> <i_i_glide_rotatable_bonds>
13

> <r_i_docking_score>
-7.48021529623641

> <r_i_glide_ligand_efficiency>
-0.213720437035326

> <r_i_glide_ligand_efficiency_sa>
-0.69909372055653

> <r_i_glide_ligand_efficiency_ln>
-1.64207327195777

> <r_i_glide_gscore>
-7.48021529623641

> <r_i_glide_lipo>
-3.58660285055441

> <r_i_glide_hbond>
0

> <r_i_glide_metal>
0

> <r_i_glide_rewards>
-1.11107847805382

> <r_i_glide_evdw>
-52.1554145812988

> <r_i_glide_ecoul>
-6.85435962677002

> <r_i_glide_erotb>
0.865218214171338

> <r_i_glide_esite>
-0.0118275087190816

> <r_i_glide_emodel>
-78.0181467854075

> <r_i_glide_energy>
-59.0097742080688

> <r_i_glide_einternal>
14.8699369430542

> <i_i_glide_confnum>
111

> <i_i_glide_posenum>
309

> <r_i_glide_eff_state_penalty>
0

> <s_user_duplicate_titles>
CHEMBL1952_lig214,171675

> <i_f3d_flags>
0

> <s_m_subgroup_title>
dock_pv

> <s_m_subgroupid>
dock_pv

> <b_m_subgroup_collapsed>
1

$$$$
CHEMBL1952_lig372
                    3D
 Schrodinger Suite 2021-1.
 61 64  0  0  1  0            999 V2000
   16.9570   13.4708   35.1934 C   0  0  0  0  0  0
   12.7501   11.6436   39.2309 S   0  0  0  0  0  0
   16.9359   14.7647   34.4588 C   0  0  0  0  0  0
   18.1115   15.1105   33.7702 N   0  0  0  0  0  0
   17.9940   12.6142   34.9459 C   0  0  0  0  0  0
   18.9914   12.9777   34.0681 N   0  0  0  0  0  0
   19.0267   14.2525   33.5505 C   0  0  0  0  0  0
   15.8627   13.0370   36.1287 C   0  0  0  0  0  0
    8.5442   10.6715   33.8392 C   0  0  0  0  0  0
   13.9615   12.1938   38.0336 C   0  0  0  0  0  0
   11.9053   10.2989   38.4478 N   0  0  0  0  0  0
   15.7289   11.6682   36.4492 C   0  0  0  0  0  0
    8.8356   11.6134   32.9162 N   0  0  0  0  0  0
    7.8173   10.7079   30.7922 C   0  0  0  0  0  0
   14.7829   11.2650   37.3972 C   0  0  0  0  0  0
    8.0296   11.9192   31.7242 C   0  0  2  0  0  0
   13.4861   11.0584   40.3555 O   0  0  0  0  0  0
   11.7818   12.7249   39.4516 O   0  0  0  0  0  0
   15.0315   13.9589   36.7899 C   0  0  0  0  0  0
   15.9019   15.4289   34.4484 O   0  0  0  0  0  0
    9.4639   10.5869   35.0334 C   0  0  0  0  0  0
   18.0410   11.1950   35.5084 C   0  0  0  0  0  0
   10.2862   14.4389   29.5908 C   0  0  0  0  0  0
   14.0849   13.5462   37.7226 C   0  0  0  0  0  0
    7.5784    9.9138   33.7499 O   0  0  0  0  0  0
   16.6129   10.6495   35.7416 C   0  0  0  0  0  0
    6.7263   10.2635   30.5093 O   0  0  0  0  0  0
   20.1338   14.6280   32.7812 N   0  0  0  0  0  0
    9.4884   15.2786   29.1848 O   0  0  0  0  0  0
    8.5635   13.1946   31.0133 C   0  0  0  0  0  0
   11.0811   10.4369   37.3210 C   0  0  0  0  0  0
   10.2051   11.6964   35.4541 C   0  0  0  0  0  0
    9.5435    9.3996   35.7721 C   0  0  0  0  0  0
    9.8732   13.0891   30.1786 C   0  0  0  0  0  0
    9.0178   10.2204   30.3829 O   0  0  0  0  0  0
   11.6391   14.6271   29.5913 O   0  0  0  0  0  0
   10.3545    9.3229   36.9015 C   0  0  0  0  0  0
   11.0004   11.6265   36.5911 C   0  0  0  0  0  0
    7.0390   12.1686   32.1111 H   0  0  0  0  0  0
   12.2129    9.3710   38.6893 H   0  0  0  0  0  0
    9.6566   12.1800   33.0508 H   0  0  0  0  0  0
   14.6808   10.2171   37.6350 H   0  0  0  0  0  0
   15.1271   15.0232   36.6343 H   0  0  0  0  0  0
   20.6632   13.9084   32.3076 H   0  0  0  0  0  0
   18.6758   11.1392   36.3900 H   0  0  0  0  0  0
   18.4664   10.5304   34.7537 H   0  0  0  0  0  0
   13.4677   14.2816   38.2183 H   0  0  0  0  0  0
   16.1390   10.4198   34.7913 H   0  0  0  0  0  0
   16.6510    9.7099   36.2919 H   0  0  0  0  0  0
   20.0812   15.4955   32.2566 H   0  0  0  0  0  0
   19.7266   12.3302   33.8039 H   0  0  0  0  0  0
    8.6970   13.9742   31.7643 H   0  0  0  0  0  0
    7.7603   13.5828   30.3898 H   0  0  0  0  0  0
   10.1604   12.6294   34.9190 H   0  0  0  0  0  0
    8.9771    8.5278   35.4728 H   0  0  0  0  0  0
   10.6783   12.7021   30.7936 H   0  0  0  0  0  0
    9.7908   12.4025   29.3380 H   0  0  0  0  0  0
    9.7526   10.6917   30.7804 H   0  0  0  0  0  0
   12.1233   13.8557   29.9060 H   0  0  0  0  0  0
   10.4101    8.3936   37.4503 H   0  0  0  0  0  0
   11.5491   12.5093   36.8801 H   0  0  0  0  0  0
  1  3  1  0  0  0
  1  8  1  0  0  0
  1  5  2  0  0  0
  2 10  1  0  0  0
  2 11  1  0  0  0
  2 17  2  0  0  0
  2 18  2  0  0  0
  3  4  1  0  0  0
  3 20  2  0  0  0
  4  7  2  0  0  0
  5  6  1  0  0  0
  5 22  1  0  0  0
  6 51  1  0  0  0
  6  7  1  0  0  0
  7 28  1  0  0  0
  8 12  2  0  0  0
  8 19  1  0  0  0
  9 21  1  0  0  0
  9 13  1  0  0  0
  9 25  2  0  0  0
 10 24  1  0  0  0
 10 15  2  0  0  0
 11 31  1  0  0  0
 11 40  1  0  0  0
 12 15  1  0  0  0
 12 26  1  0  0  0
 13 16  1  0  0  0
 13 41  1  0  0  0
 14 16  1  0  0  0
 14 27  2  0  0  0
 14 35  1  0  0  0
 15 42  1  0  0  0
 16 30  1  0  0  0
 16 39  1  0  0  0
 19 24  2  0  0  0
 19 43  1  0  0  0
 21 32  2  0  0  0
 21 33  1  0  0  0
 22 26  1  0  0  0
 22 45  1  0  0  0
 22 46  1  0  0  0
 23 34  1  0  0  0
 23 29  2  0  0  0
 23 36  1  0  0  0
 24 47  1  0  0  0
 26 48  1  0  0  0
 26 49  1  0  0  0
 28 50  1  0  0  0
 28 44  1  0  0  0
 30 34  1  0  0  0
 30 52  1  0  0  0
 30 53  1  0  0  0
 31 37  1  0  0  0
 31 38  2  0  0  0
 32 38  1  0  0  0
 32 54  1  0  0  0
 33 37  2  0  0  0
 33 55  1  0  0  0
 34 56  1  0  0  0
 34 57  1  0  0  0
 35 58  1  0  0  0
 36 59  1  0  0  0
 37 60  1  0  0  0
 38 61  1  0  0  0
M  END
> <s_m_entry_id>
41241

> <s_m_entry_name>
dock_pv.358

> <s_m_Source_Path>
/home/csk/Desktop/cluster/DUD-E-result/tysy

> <s_m_Source_File>
dock_pv.maegz

> <i_m_Source_File_Index>
358

> <chembl_id>
CHEMBL116589

> <chembl_pref_name>
None

> <i_lp_mmshare_version>
53161

> <r_lp_tautomer_probability>
0.108277240005817

> <s_lp_Force_Field>
OPLS_2005

> <r_lp_Energy>
28.204544

> <b_lp_Chiralities_Consistent>
1

> <s_lp_Variant>
CHEMBL1952_lig372-2

> <s_i_glide_gridfile>
glide-grid_1syn

> <i_i_glide_lignum>
743

> <i_i_glide_rotatable_bonds>
12

> <r_i_docking_score>
-7.47917397072729

> <r_i_glide_ligand_efficiency>
-0.196820367650718

> <r_i_glide_ligand_efficiency_sa>
-0.661705234796508

> <r_i_glide_ligand_efficiency_ln>
-1.61272992309615

> <r_i_glide_gscore>
-7.47917397072729

> <r_i_glide_lipo>
-2.52507374359738

> <r_i_glide_hbond>
-0.476413550204075

> <r_i_glide_metal>
0

> <r_i_glide_rewards>
0.38727552218874

> <r_i_glide_evdw>
-47.0838775634766

> <r_i_glide_ecoul>
-19.710334777832

> <r_i_glide_erotb>
0.705213309287663

> <r_i_glide_esite>
-0.259431413553602

> <r_i_glide_emodel>
-91.2180497153982

> <r_i_glide_energy>
-66.7942123413086

> <r_i_glide_einternal>
6.52182865142822

> <i_i_glide_confnum>
14

> <i_i_glide_posenum>
99

> <r_i_glide_eff_state_penalty>
0

> <s_user_duplicate_titles>
CHEMBL1952_lig372

> <i_f3d_flags>
0

> <s_m_subgroup_title>
dock_pv

> <s_m_subgroupid>
dock_pv

> <b_m_subgroup_collapsed>
1

$$$$
CHEMBL1952_lig59
                    3D
 Schrodinger Suite 2021-1.
 27 29  0  0  1  0            999 V2000
   14.5678   17.0435   31.5690 C   0  0  0  0  0  0
   14.5344   16.7969   30.1007 C   0  0  0  0  0  0
   13.7511   18.0133   32.0774 C   0  0  0  0  0  0
   13.7303   17.6647   29.3379 N   0  0  0  0  0  0
   15.3909   16.2311   32.5293 C   0  0  0  0  0  0
   12.9318   18.7385   31.2426 N   0  0  0  0  0  0
   12.9840   18.5436   29.8805 C   0  0  0  0  0  0
   14.9923   16.1625   33.8800 C   0  0  0  0  0  0
   16.5986   15.6163   32.1610 C   0  0  0  0  0  0
   17.3700   14.9146   33.0849 C   0  0  0  0  0  0
   16.9275   14.7958   34.4036 C   0  0  0  0  0  0
   15.7523   15.4281   34.7919 C   0  0  0  0  0  0
   15.1736   15.8577   29.6366 O   0  0  0  0  0  0
   13.5851   18.2292   33.5791 C   0  0  0  0  0  0
   13.7238   16.8812   34.3156 C   0  0  0  0  0  0
   12.1921   19.3515   29.0528 N   0  0  0  0  0  0
   18.8694   14.2271   32.5697 Cl  0  0  0  0  0  0
   17.7920   13.8736   35.5777 Cl  0  0  0  0  0  0
   16.9847   15.6991   31.1564 H   0  0  0  0  0  0
   15.4275   15.3532   35.8204 H   0  0  0  0  0  0
   11.3266   19.7273   29.4259 H   0  0  0  0  0  0
   12.5666   18.5525   33.7995 H   0  0  0  0  0  0
   14.2696   18.9985   33.9415 H   0  0  0  0  0  0
   13.7092   17.0367   35.3942 H   0  0  0  0  0  0
   12.8717   16.2430   34.0748 H   0  0  0  0  0  0
   12.0793   19.0553   28.0975 H   0  0  0  0  0  0
   12.3278   19.4555   31.6125 H   0  0  0  0  0  0
  1  2  1  0  0  0
  1  5  1  0  0  0
  1  3  2  0  0  0
  2  4  1  0  0  0
  2 13  2  0  0  0
  3  6  1  0  0  0
  3 14  1  0  0  0
  4  7  2  0  0  0
  5  8  2  0  0  0
  5  9  1  0  0  0
  6 27  1  0  0  0
  6  7  1  0  0  0
  7 16  1  0  0  0
  8 12  1  0  0  0
  8 15  1  0  0  0
  9 10  2  0  0  0
  9 19  1  0  0  0
 10 11  1  0  0  0
 10 17  1  0  0  0
 11 18  1  0  0  0
 11 12  2  0  0  0
 12 20  1  0  0  0
 14 15  1  0  0  0
 14 22  1  0  0  0
 14 23  1  0  0  0
 15 24  1  0  0  0
 15 25  1  0  0  0
 16 26  1  0  0  0
 16 21  1  0  0  0
M  END
> <s_m_entry_id>
41242

> <s_m_entry_name>
dock_pv.359

> <s_m_Source_Path>
/home/csk/Desktop/cluster/DUD-E-result/tysy

> <s_m_Source_File>
dock_pv.maegz

> <i_m_Source_File_Index>
359

> <chembl_id>
CHEMBL309184

> <chembl_pref_name>
None

> <i_lp_mmshare_version>
53161

> <r_lp_tautomer_probability>
0.108277240005817

> <s_lp_Force_Field>
OPLS_2005

> <r_lp_Energy>
22.591414

> <b_lp_Chiralities_Consistent>
1

> <s_lp_Variant>
CHEMBL1952_lig59-2

> <s_i_glide_gridfile>
glide-grid_1syn

> <i_i_glide_lignum>
88

> <i_i_glide_rotatable_bonds>
0

> <r_i_docking_score>
-7.4758467468181

> <r_i_glide_ligand_efficiency>
-0.415324819267672

> <r_i_glide_ligand_efficiency_sa>
-1.08845894484843

> <r_i_glide_ligand_efficiency_ln>
-1.92162785770913

> <r_i_glide_gscore>
-7.4758467468181

> <r_i_glide_lipo>
-2.77652477723453

> <r_i_glide_hbond>
-0.306091008370328

> <r_i_glide_metal>
0

> <r_i_glide_rewards>
-1.84544723769901

> <r_i_glide_evdw>
-38.0637702941895

> <r_i_glide_ecoul>
-3.9451060295105

> <r_i_glide_erotb>
0

> <r_i_glide_esite>
-0.0528293043781943

> <r_i_glide_emodel>
-61.2943074308495

> <r_i_glide_energy>
-42.0088763237

> <r_i_glide_einternal>
0

> <i_i_glide_confnum>
1

> <i_i_glide_posenum>
34

> <r_i_glide_eff_state_penalty>
0

> <s_user_duplicate_titles>
CHEMBL1952_lig59,CHEMBL1952_lig59,CHEMBL1952_lig59

> <i_f3d_flags>
0

> <s_m_subgroup_title>
dock_pv

> <s_m_subgroupid>
dock_pv

> <b_m_subgroup_collapsed>
1

$$$$
CHEMBL1952_lig99
                    3D
 Schrodinger Suite 2021-1.
 32 34  0  0  1  0            999 V2000
   13.4830   17.4586   30.6204 N   0  0  0  0  0  0
   16.1510   16.2904   32.8927 C   0  0  2  0  0  0
   15.2039   17.3590   32.3924 C   0  0  1  0  0  0
   14.3035   16.5717   31.4483 C   0  0  2  0  0  0
   14.3293   18.2924   33.2509 C   0  0  0  0  0  0
   13.3247   18.8209   32.5021 N   0  0  0  0  0  0
   13.0179   18.5136   31.1981 C   0  0  0  0  0  0
   15.2066   15.6564   30.8048 N   0  0  0  0  0  0
   16.1889   15.4279   31.6046 C   0  0  0  0  0  0
   15.5502   15.4279   34.3910 S   0  0  0  0  0  0
   14.5923   18.6242   34.3989 O   0  0  0  0  0  0
   18.2742   11.9045   35.3704 N   0  0  0  0  0  0
   12.1921   19.3919   30.4781 N   0  0  0  0  0  0
   16.6616   14.1337   34.8520 C   0  0  0  0  0  0
   17.3009   14.4476   31.2912 C   0  0  0  0  0  0
   17.9966   14.1218   34.4385 C   0  0  0  0  0  0
   16.1628   13.0582   35.5914 C   0  0  0  0  0  0
   16.9931   11.9601   35.8145 C   0  0  0  0  0  0
   18.7614   12.9865   34.7100 C   0  0  0  0  0  0
   15.7919   18.0814   31.8375 H   0  0  0  0  0  0
   13.5901   15.9388   31.9895 H   0  0  0  0  0  0
   12.8279   19.5719   32.9602 H   0  0  0  0  0  0
   17.2572   13.5789   31.9459 H   0  0  0  0  0  0
   12.0025   19.1169   29.5258 H   0  0  0  0  0  0
   11.2980   19.6185   30.8955 H   0  0  0  0  0  0
   18.2803   14.9144   31.3954 H   0  0  0  0  0  0
   17.1298   16.7114   33.1239 H   0  0  0  0  0  0
   17.2227   14.0731   30.2699 H   0  0  0  0  0  0
   18.4282   14.9449   33.8903 H   0  0  0  0  0  0
   15.1385   13.0509   35.9339 H   0  0  0  0  0  0
   16.6347   11.0967   36.3546 H   0  0  0  0  0  0
   19.7918   12.9314   34.3908 H   0  0  0  0  0  0
  1  4  1  0  0  0
  1  7  2  0  0  0
  2  3  1  0  0  0
  2 10  1  0  0  0
  2 27  1  0  0  0
  2  9  1  0  0  0
  3  4  1  0  0  0
  3  5  1  0  0  0
  3 20  1  0  0  0
  4 21  1  0  0  0
  4  8  1  0  0  0
  5  6  1  0  0  0
  5 11  2  0  0  0
  6  7  1  0  0  0
  6 22  1  0  0  0
  7 13  1  0  0  0
  8  9  2  0  0  0
  9 15  1  0  0  0
 10 14  1  0  0  0
 12 18  1  0  0  0
 12 19  2  0  0  0
 13 24  1  0  0  0
 13 25  1  0  0  0
 14 16  2  0  0  0
 14 17  1  0  0  0
 15 26  1  0  0  0
 15 28  1  0  0  0
 15 23  1  0  0  0
 16 19  1  0  0  0
 16 29  1  0  0  0
 17 18  2  0  0  0
 17 30  1  0  0  0
 18 31  1  0  0  0
 19 32  1  0  0  0
M  END
> <s_m_entry_id>
41244

> <s_m_entry_name>
dock_pv.361

> <s_m_Source_Path>
/home/csk/Desktop/cluster/DUD-E-result/tysy

> <s_m_Source_File>
dock_pv.maegz

> <i_m_Source_File_Index>
361

> <chembl_id>
CHEMBL138500

> <chembl_pref_name>
None

> <i_lp_mmshare_version>
53161

> <r_lp_tautomer_probability>
0.384609230769231

> <s_lp_Force_Field>
OPLS_2005

> <r_lp_Energy>
38.216182

> <b_lp_Chiralities_Consistent>
1

> <s_lp_Variant>
CHEMBL1952_lig99-11

> <s_i_glide_gridfile>
glide-grid_1syn

> <i_i_glide_lignum>
182

> <i_i_glide_rotatable_bonds>
2

> <r_i_docking_score>
-7.47304713696549

> <r_i_glide_ligand_efficiency>
-0.393318270366605

> <r_i_glide_ligand_efficiency_sa>
-1.04953112008862

> <r_i_glide_ligand_efficiency_ln>
-1.89457795555624

> <r_i_glide_gscore>
-7.47304713696549

> <r_i_glide_lipo>
-2.4108817494816

> <r_i_glide_hbond>
-0.23231450878385

> <r_i_glide_metal>
0

> <r_i_glide_rewards>
-2.5601511329238

> <r_i_glide_evdw>
-39.7333869934082

> <r_i_glide_ecoul>
-4.71960639953613

> <r_i_glide_erotb>
0.474163199295576

> <r_i_glide_esite>
-0.049252635470987

> <r_i_glide_emodel>
-63.975171671474

> <r_i_glide_energy>
-44.4529933929443

> <r_i_glide_einternal>
1.37219738960266

> <i_i_glide_confnum>
1

> <i_i_glide_posenum>
276

> <r_i_glide_eff_state_penalty>
0

> <s_user_duplicate_titles>
CHEMBL1952_lig99

> <i_f3d_flags>
0

> <s_m_subgroup_title>
dock_pv

> <s_m_subgroupid>
dock_pv

> <b_m_subgroup_collapsed>
1

$$$$
CHEMBL1952_lig76
                    3D
 Schrodinger Suite 2021-1.
 25 27  0  0  1  0            999 V2000
   14.0673   17.8511   32.2593 C   0  0  0  0  0  0
   14.8687   16.8019   31.6512 C   0  0  0  0  0  0
   13.1767   18.5766   31.5456 N   0  0  0  0  0  0
   13.0814   18.3290   30.2294 C   0  0  0  0  0  0
   13.7852   17.4182   29.5358 N   0  0  0  0  0  0
   15.8220   15.9321   32.2943 C   0  0  0  0  0  0
   14.6693   16.6602   30.2371 C   0  0  0  0  0  0
   16.0500   15.8855   33.7069 C   0  0  0  0  0  0
   16.5967   15.0276   31.4956 C   0  0  0  0  0  0
   17.0019   15.0371   34.2720 C   0  0  0  0  0  0
   17.7835   14.2137   33.4674 C   0  0  0  0  0  0
   17.5818   14.2000   32.0943 C   0  0  0  0  0  0
   14.2327   18.1742   33.5755 O   0  0  0  0  0  0
   15.4145   15.7283   29.4947 C   0  0  0  0  0  0
   16.3732   14.9444   30.1096 C   0  0  0  0  0  0
   12.1918   19.1034   29.5093 N   0  0  0  0  0  0
   17.1784   15.0248   35.9912 Cl  0  0  0  0  0  0
   18.9908   13.1784   34.1489 Cl  0  0  0  0  0  0
   15.4841   16.4828   34.3963 H   0  0  0  0  0  0
   18.1716   13.5357   31.4763 H   0  0  0  0  0  0
   13.6685   18.9208   33.8056 H   0  0  0  0  0  0
   15.2495   15.6387   28.4293 H   0  0  0  0  0  0
   16.9458   14.2389   29.5248 H   0  0  0  0  0  0
   12.0379   18.8845   28.5376 H   0  0  0  0  0  0
   11.4977   19.6345   30.0214 H   0  0  0  0  0  0
  1  2  1  0  0  0
  1  3  2  0  0  0
  1 13  1  0  0  0
  2  6  2  0  0  0
  2  7  1  0  0  0
  3  4  1  0  0  0
  4  5  2  0  0  0
  4 16  1  0  0  0
  5  7  1  0  0  0
  6  8  1  0  0  0
  6  9  1  0  0  0
  7 14  2  0  0  0
  8 10  2  0  0  0
  8 19  1  0  0  0
  9 12  1  0  0  0
  9 15  2  0  0  0
 10 17  1  0  0  0
 10 11  1  0  0  0
 11 12  2  0  0  0
 11 18  1  0  0  0
 12 20  1  0  0  0
 13 21  1  0  0  0
 14 15  1  0  0  0
 14 22  1  0  0  0
 15 23  1  0  0  0
 16 24  1  0  0  0
 16 25  1  0  0  0
M  END
> <s_m_entry_id>
41245

> <s_m_entry_name>
dock_pv.362

> <s_m_Source_Path>
/home/csk/Desktop/cluster/DUD-E-result/tysy

> <s_m_Source_File>
dock_pv.maegz

> <i_m_Source_File_Index>
362

> <chembl_id>
CHEMBL73594

> <chembl_pref_name>
None

> <i_lp_mmshare_version>
53161

> <r_lp_tautomer_probability>
1

> <s_lp_Force_Field>
OPLS_2005

> <r_lp_Energy>
13.469102

> <b_lp_Chiralities_Consistent>
1

> <s_lp_Variant>
CHEMBL1952_lig76-1

> <s_i_glide_gridfile>
glide-grid_1syn

> <i_i_glide_lignum>
120

> <i_i_glide_rotatable_bonds>
1

> <r_i_docking_score>
-7.47067080237206

> <r_i_glide_ligand_efficiency>
-0.415037266798448

> <r_i_glide_ligand_efficiency_sa>
-1.08770534419006

> <r_i_glide_ligand_efficiency_ln>
-1.92029740787859

> <r_i_glide_gscore>
-7.47067080237206

> <r_i_glide_lipo>
-2.78701582566774

> <r_i_glide_hbond>
-0.235266235013926

> <r_i_glide_metal>
0

> <r_i_glide_rewards>
-2.00209053566812

> <r_i_glide_evdw>
-36.7621269226074

> <r_i_glide_ecoul>
-3.71678781509399

> <r_i_glide_erotb>
0

> <r_i_glide_esite>
-0.0506736876277979

> <r_i_glide_emodel>
-58.6418208462487

> <r_i_glide_energy>
-40.4789147377014

> <r_i_glide_einternal>
0.998471200466156

> <i_i_glide_confnum>
1

> <i_i_glide_posenum>
6

> <r_i_glide_eff_state_penalty>
0

> <s_user_duplicate_titles>
CHEMBL1952_lig76

> <i_f3d_flags>
0

> <s_m_subgroup_title>
dock_pv

> <s_m_subgroupid>
dock_pv

> <b_m_subgroup_collapsed>
1

$$$$
CHEMBL1952_lig399
                    3D
 Schrodinger Suite 2021-1.
 57 61  0  0  1  0            999 V2000
   12.5119   12.5580   37.5762 S   0  0  0  0  0  0
   12.8097   11.6703   39.0241 N   0  0  0  0  0  0
   14.1396   17.7523   32.6644 C   0  0  0  0  0  0
   15.2383   16.7578   32.3970 C   0  0  0  0  0  0
   13.4424   18.0587   31.5486 N   0  0  0  0  0  0
   14.5280   16.6576   30.0619 N   0  0  0  0  0  0
   12.9573   10.3018   39.0354 C   0  0  0  0  0  0
   15.3600   16.2281   31.1103 C   0  0  0  0  0  0
   13.6280   17.5434   30.2956 C   0  0  0  0  0  0
   13.1402   12.1646   40.2789 C   0  0  0  0  0  0
   14.1198   12.8905   36.8577 C   0  0  0  0  0  0
   13.2619    9.8666   40.3053 C   0  0  0  0  0  0
   11.9102   13.8276   37.9924 O   0  0  0  0  0  0
   11.8112   11.6324   36.6797 O   0  0  0  0  0  0
   17.7630   13.6713   34.7938 N   0  0  0  0  0  0
   18.9918   11.5249   34.8873 C   0  0  0  0  0  0
   19.3971   10.6147   35.5900 C   0  0  0  0  0  0
   16.0957   16.3676   33.4175 C   0  0  0  0  0  0
   13.3932   11.0332   41.1202 C   0  0  0  0  0  0
   16.5575   13.3955   35.5199 C   0  0  0  0  0  0
   13.8611   18.2287   33.7595 O   0  0  0  0  0  0
   18.0380   15.0273   34.2971 C   0  0  0  0  0  0
   17.0908   15.4236   33.1663 C   0  0  0  0  0  0
   16.3497   15.2812   30.8527 C   0  0  0  0  0  0
   14.8051   11.8503   36.2429 C   0  0  0  0  0  0
   14.6625   14.1746   36.8491 C   0  0  0  0  0  0
   16.0054   12.1034   35.5911 C   0  0  0  0  0  0
   15.8636   14.4184   36.1847 C   0  0  0  0  0  0
   18.4827   12.6241   34.0521 C   0  0  0  0  0  0
   17.2159   14.8813   31.8777 C   0  0  0  0  0  0
   12.7353   18.0359   29.1907 C   0  0  0  0  0  0
   13.2235   13.4742   40.7718 C   0  0  0  0  0  0
   13.7211   11.2436   42.4691 C   0  0  0  0  0  0
   13.5546   13.6338   42.1183 C   0  0  0  0  0  0
   13.7955   12.5479   42.9514 C   0  0  0  0  0  0
   12.7908    9.7365   38.1260 H   0  0  0  0  0  0
   13.3935    8.8350   40.5946 H   0  0  0  0  0  0
   19.7564    9.8280   36.2116 H   0  0  0  0  0  0
   15.9842   16.8050   34.3921 H   0  0  0  0  0  0
   12.7184   18.7413   31.6944 H   0  0  0  0  0  0
   19.0539   15.0901   33.9045 H   0  0  0  0  0  0
   18.0277   15.7519   35.1082 H   0  0  0  0  0  0
   16.4526   14.8689   29.8599 H   0  0  0  0  0  0
   14.3932   10.8527   36.2334 H   0  0  0  0  0  0
   14.1628   14.9949   37.3419 H   0  0  0  0  0  0
   16.4586   11.2654   35.0918 H   0  0  0  0  0  0
   16.2436   15.4264   36.2083 H   0  0  0  0  0  0
   17.8305   12.2282   33.2777 H   0  0  0  0  0  0
   19.3586   13.0230   33.5330 H   0  0  0  0  0  0
   17.9898   14.1552   31.6658 H   0  0  0  0  0  0
   12.1503   17.2091   28.7920 H   0  0  0  0  0  0
   12.0416   18.8080   29.5236 H   0  0  0  0  0  0
   13.3237   18.4516   28.3727 H   0  0  0  0  0  0
   13.0415   14.3303   40.1394 H   0  0  0  0  0  0
   13.9242   10.4090   43.1239 H   0  0  0  0  0  0
   13.6283   14.6280   42.5307 H   0  0  0  0  0  0
   14.0555   12.7177   43.9889 H   0  0  0  0  0  0
  1  2  1  0  0  0
  1 11  1  0  0  0
  1 13  2  0  0  0
  1 14  2  0  0  0
  2  7  1  0  0  0
  2 10  1  0  0  0
  3 21  2  0  0  0
  3  4  1  0  0  0
  3  5  1  0  0  0
  4 18  1  0  0  0
  4  8  2  0  0  0
  5  9  1  0  0  0
  5 40  1  0  0  0
  6  8  1  0  0  0
  6  9  2  0  0  0
  7 12  2  0  0  0
  7 36  1  0  0  0
  8 24  1  0  0  0
  9 31  1  0  0  0
 10 19  2  0  0  0
 10 32  1  0  0  0
 11 25  1  0  0  0
 11 26  2  0  0  0
 12 19  1  0  0  0
 12 37  1  0  0  0
 15 20  1  0  0  0
 15 22  1  0  0  0
 15 29  1  0  0  0
 16 29  1  0  0  0
 16 17  3  0  0  0
 17 38  1  0  0  0
 18 39  1  0  0  0
 18 23  2  0  0  0
 19 33  1  0  0  0
 20 28  2  0  0  0
 20 27  1  0  0  0
 22 41  1  0  0  0
 22 42  1  0  0  0
 22 23  1  0  0  0
 23 30  1  0  0  0
 24 30  2  0  0  0
 24 43  1  0  0  0
 25 27  2  0  0  0
 25 44  1  0  0  0
 26 28  1  0  0  0
 26 45  1  0  0  0
 27 46  1  0  0  0
 28 47  1  0  0  0
 29 48  1  0  0  0
 29 49  1  0  0  0
 30 50  1  0  0  0
 31 51  1  0  0  0
 31 52  1  0  0  0
 31 53  1  0  0  0
 32 34  2  0  0  0
 32 54  1  0  0  0
 33 35  2  0  0  0
 33 55  1  0  0  0
 34 35  1  0  0  0
 34 56  1  0  0  0
 35 57  1  0  0  0
M  END
> <s_m_entry_id>
41246

> <s_m_entry_name>
dock_pv.363

> <s_m_Source_Path>
/home/csk/Desktop/cluster/DUD-E-result/tysy

> <s_m_Source_File>
dock_pv.maegz

> <i_m_Source_File_Index>
363

> <chembl_id>
CHEMBL299928

> <chembl_pref_name>
None

> <i_lp_mmshare_version>
53161

> <r_lp_tautomer_probability>
0.883938

> <s_lp_Force_Field>
OPLS_2005

> <r_lp_Energy>
22.239344

> <b_lp_Chiralities_Consistent>
1

> <s_lp_Variant>
CHEMBL1952_lig399-1

> <s_i_glide_gridfile>
glide-grid_1syn

> <i_i_glide_lignum>
785

> <i_i_glide_rotatable_bonds>
7

> <r_i_docking_score>
-7.46955304067697

> <r_i_glide_ligand_efficiency>
-0.213415801162199

> <r_i_glide_ligand_efficiency_sa>
-0.69809723641625

> <r_i_glide_ligand_efficiency_ln>
-1.63973267022646

> <r_i_glide_gscore>
-7.46955304067697

> <r_i_glide_lipo>
-3.76050612908977

> <r_i_glide_hbond>
0

> <r_i_glide_metal>
0

> <r_i_glide_rewards>
-0.76567486110646

> <r_i_glide_evdw>
-61.40478515625

> <r_i_glide_ecoul>
-3.19116449356079

> <r_i_glide_erotb>
0.610071955713456

> <r_i_glide_esite>
-0.0045300743475664

> <r_i_glide_emodel>
-90.5206363080331

> <r_i_glide_energy>
-64.5959496498108

> <r_i_glide_einternal>
4.01559495925903

> <i_i_glide_confnum>
56

> <i_i_glide_posenum>
278

> <r_i_glide_eff_state_penalty>
0

> <s_user_duplicate_titles>
CHEMBL1952_lig399,CHEMBL1952_lig399,89851

> <i_f3d_flags>
0

> <s_m_subgroup_title>
dock_pv

> <s_m_subgroupid>
dock_pv

> <b_m_subgroup_collapsed>
1

$$$$
CHEMBL1952_lig349
                    3D
 Schrodinger Suite 2021-1.
 52 55  0  0  1  0            999 V2000
   13.8847   17.7687   32.8210 C   0  0  0  0  0  0
   15.0014   16.7781   32.6041 C   0  0  0  0  0  0
   13.3164   18.1731   31.6603 N   0  0  0  0  0  0
   14.5410   16.8722   30.1980 N   0  0  0  0  0  0
   15.2545   16.3554   31.2946 C   0  0  0  0  0  0
   13.6271   17.7504   30.3977 C   0  0  0  0  0  0
   12.7331   11.5127   38.1065 S   0  0  1  0  0  0
   17.4711   13.4723   34.8611 N   0  0  0  0  0  0
   18.9888   11.5258   34.9063 C   0  0  0  0  0  0
   19.4403   10.6269   35.5910 C   0  0  0  0  0  0
   15.7505   16.2895   33.6772 C   0  0  0  0  0  0
   14.1314   12.1212   37.1086 C   0  0  0  0  0  0
   16.3242   13.0220   35.5912 C   0  0  0  0  0  0
   13.4886   18.1686   33.9087 O   0  0  0  0  0  0
   17.6643   14.8939   34.5846 C   0  0  0  0  0  0
   12.2799   12.6825   38.9839 O   0  0  0  0  0  0
   11.5254   11.3732   36.7431 C   0  0  0  0  0  0
   16.7869   15.3838   33.4336 C   0  0  0  0  0  0
   16.2657   15.4290   31.0560 C   0  0  0  0  0  0
   14.8828   11.2143   36.3725 C   0  0  0  0  0  0
   14.4433   13.4765   37.0829 C   0  0  0  0  0  0
   15.5323   13.9165   36.3364 C   0  0  0  0  0  0
   15.9511   11.6671   35.6078 C   0  0  0  0  0  0
   18.3696   12.5888   34.1039 C   0  0  0  0  0  0
   17.0395   14.9580   32.1197 C   0  0  0  0  0  0
   12.8805   18.3718   29.2401 C   0  0  0  0  0  0
   10.4938   12.3067   36.6325 C   0  0  0  0  0  0
   11.6435   10.3286   35.8227 C   0  0  0  0  0  0
   10.7319   10.2261   34.7756 C   0  0  0  0  0  0
    9.5735   12.1917   35.5935 C   0  0  0  0  0  0
    9.7012   11.1579   34.6670 C   0  0  0  0  0  0
   19.7925    9.8286   36.1984 H   0  0  0  0  0  0
   15.5406   16.6234   34.6850 H   0  0  0  0  0  0
   12.5903   18.8604   31.7796 H   0  0  0  0  0  0
   18.7028   15.1002   34.3187 H   0  0  0  0  0  0
   17.5133   15.4282   35.5123 H   0  0  0  0  0  0
   16.4677   15.1010   30.0474 H   0  0  0  0  0  0
   14.6428   10.1621   36.3831 H   0  0  0  0  0  0
   13.8590   14.1853   37.6508 H   0  0  0  0  0  0
   15.7444   14.9713   36.3814 H   0  0  0  0  0  0
   16.4838   10.9258   35.0381 H   0  0  0  0  0  0
   17.8287   12.1529   33.2701 H   0  0  0  0  0  0
   19.2034   13.1341   33.6584 H   0  0  0  0  0  0
   17.8432   14.2654   31.9158 H   0  0  0  0  0  0
   13.0760   17.8442   28.3049 H   0  0  0  0  0  0
   11.8030   18.3571   29.4109 H   0  0  0  0  0  0
   13.1830   19.4107   29.1034 H   0  0  0  0  0  0
   10.4037   13.1118   37.3464 H   0  0  0  0  0  0
   12.4333    9.5986   35.9110 H   0  0  0  0  0  0
   10.8216    9.4288   34.0513 H   0  0  0  0  0  0
    8.7668   12.9045   35.5031 H   0  0  0  0  0  0
    8.9923   11.0759   33.8554 H   0  0  0  0  0  0
  1 14  2  0  0  0
  1  2  1  0  0  0
  1  3  1  0  0  0
  2 11  1  0  0  0
  2  5  2  0  0  0
  3  6  1  0  0  0
  3 34  1  0  0  0
  4  5  1  0  0  0
  4  6  2  0  0  0
  5 19  1  0  0  0
  6 26  1  0  0  0
  7 12  1  0  0  0
  7 16  2  0  0  0
  7 17  1  0  0  0
  8 15  1  0  0  0
  8 13  1  0  0  0
  8 24  1  0  0  0
  9 24  1  0  0  0
  9 10  3  0  0  0
 10 32  1  0  0  0
 11 33  1  0  0  0
 11 18  2  0  0  0
 12 20  2  0  0  0
 12 21  1  0  0  0
 13 22  1  0  0  0
 13 23  2  0  0  0
 15 35  1  0  0  0
 15 36  1  0  0  0
 15 18  1  0  0  0
 17 27  2  0  0  0
 17 28  1  0  0  0
 18 25  1  0  0  0
 19 25  2  0  0  0
 19 37  1  0  0  0
 20 23  1  0  0  0
 20 38  1  0  0  0
 21 22  2  0  0  0
 21 39  1  0  0  0
 22 40  1  0  0  0
 23 41  1  0  0  0
 24 42  1  0  0  0
 24 43  1  0  0  0
 25 44  1  0  0  0
 26 45  1  0  0  0
 26 46  1  0  0  0
 26 47  1  0  0  0
 27 30  1  0  0  0
 27 48  1  0  0  0
 28 29  2  0  0  0
 28 49  1  0  0  0
 29 31  1  0  0  0
 29 50  1  0  0  0
 30 31  2  0  0  0
 30 51  1  0  0  0
 31 52  1  0  0  0
M  END
> <s_m_entry_id>
41249

> <s_m_entry_name>
dock_pv.366

> <s_m_Source_Path>
/home/csk/Desktop/cluster/DUD-E-result/tysy

> <s_m_Source_File>
dock_pv.maegz

> <i_m_Source_File_Index>
366

> <chembl_id>
CHEMBL162754

> <chembl_pref_name>
None

> <i_lp_mmshare_version>
53161

> <r_lp_tautomer_probability>
0.883938

> <s_lp_Force_Field>
OPLS_2005

> <r_lp_Energy>
25.689628

> <b_lp_Chiralities_Consistent>
1

> <s_lp_Variant>
CHEMBL1952_lig349-2

> <s_i_glide_gridfile>
glide-grid_1syn

> <i_i_glide_lignum>
642

> <i_i_glide_rotatable_bonds>
7

> <r_i_docking_score>
-7.46632463290414

> <r_i_glide_ligand_efficiency>
-0.240849181706585

> <r_i_glide_ligand_efficiency_sa>
-0.756598958691315

> <r_i_glide_ligand_efficiency_ln>
-1.6838850200902

> <r_i_glide_gscore>
-7.46632463290414

> <r_i_glide_lipo>
-3.98369699408563

> <r_i_glide_hbond>
0

> <r_i_glide_metal>
0

> <r_i_glide_rewards>
-1.00253135852436

> <r_i_glide_evdw>
-54.1198501586914

> <r_i_glide_ecoul>
-3.56246757507324

> <r_i_glide_erotb>
0.760449431864469

> <r_i_glide_esite>
-0.000183067963061224

> <r_i_glide_emodel>
-83.4490909149863

> <r_i_glide_energy>
-57.6823177337646

> <r_i_glide_einternal>
1.69034945964813

> <i_i_glide_confnum>
121

> <i_i_glide_posenum>
6

> <r_i_glide_eff_state_penalty>
0

> <s_user_duplicate_titles>
CHEMBL1952_lig349,CHEMBL1952_lig349

> <i_f3d_flags>
0

> <s_m_subgroup_title>
dock_pv

> <s_m_subgroupid>
dock_pv

> <b_m_subgroup_collapsed>
1

$$$$
CHEMBL1952_lig432
                    3D
 Schrodinger Suite 2021-1.
 55 56  0  0  1  0            999 V2000
   13.2823   18.4725   31.8708 N   0  0  0  0  0  0
   14.2756   17.8540   32.5561 C   0  0  0  0  0  0
   13.1542   18.1387   30.5663 C   0  0  0  0  0  0
   15.4970   10.4266   36.6140 C   0  0  0  0  0  0
   14.1595   10.5790   36.6445 N   0  0  0  0  0  0
   15.1367   16.9115   31.9632 C   0  0  0  0  0  0
   13.8952   17.2228   29.9017 N   0  0  0  0  0  0
   13.0245    8.4225   36.0826 C   0  0  0  0  0  0
   13.1767    9.5802   37.1037 C   0  0  1  0  0  0
   16.2813   11.5665   36.0243 C   0  0  0  0  0  0
   14.8740   16.6123   30.6155 C   0  0  0  0  0  0
   12.7642   10.8267   40.3356 C   0  0  0  0  0  0
   16.0716    9.4284   37.0378 O   0  0  0  0  0  0
   13.7440    8.2301   35.1234 O   0  0  0  0  0  0
   12.5922   10.7788   41.5541 O   0  0  0  0  0  0
   13.4701    9.0703   38.5546 C   0  0  0  0  0  0
   14.4079   18.2287   33.8900 N   0  0  0  0  0  0
   17.4848   11.2933   35.3635 C   0  0  0  0  0  0
   15.8431   12.8935   36.1449 C   0  0  0  0  0  0
   12.1927   18.8137   29.8314 N   0  0  0  0  0  0
   13.9086   10.1159   39.6178 C   0  0  0  0  0  0
   11.9303    7.6758   36.3916 O   0  0  0  0  0  0
   11.9889   11.5602   39.4902 O   0  0  0  0  0  0
   18.2169   12.3261   34.7913 C   0  0  0  0  0  0
   16.5861   13.9282   35.5913 C   0  0  0  0  0  0
   17.7608   13.6394   34.8946 C   0  0  0  0  0  0
   16.3389   16.3274   32.7158 C   0  0  0  0  0  0
   18.5481   14.7480   34.2261 C   0  0  0  0  0  0
   17.0117   15.0751   32.1080 C   0  0  0  0  0  0
   18.4019   14.7305   32.6916 C   0  0  0  0  0  0
   12.2178   10.1014   37.1093 H   0  0  0  0  0  0
   13.7762   11.3897   36.1826 H   0  0  0  0  0  0
   15.4577   15.9019   30.0545 H   0  0  0  0  0  0
   14.2525    8.3099   38.5153 H   0  0  0  0  0  0
   12.5919    8.5416   38.9273 H   0  0  0  0  0  0
   15.1268   17.8210   34.4621 H   0  0  0  0  0  0
   13.7867   18.9493   34.2452 H   0  0  0  0  0  0
   17.8547   10.2804   35.2693 H   0  0  0  0  0  0
   14.9373   13.1433   36.6822 H   0  0  0  0  0  0
   12.0499   18.5607   28.8679 H   0  0  0  0  0  0
   11.5267   19.4061   30.3091 H   0  0  0  0  0  0
   14.5901   10.8615   39.2103 H   0  0  0  0  0  0
   14.4796    9.5965   40.3894 H   0  0  0  0  0  0
   11.7872    7.0309   35.6928 H   0  0  0  0  0  0
   12.2850   11.4950   38.5802 H   0  0  0  0  0  0
   19.1340   12.1044   34.2609 H   0  0  0  0  0  0
   16.2415   14.9463   35.6987 H   0  0  0  0  0  0
   16.0246   16.0886   33.7296 H   0  0  0  0  0  0
   17.0717   17.1287   32.8057 H   0  0  0  0  0  0
   18.2775   15.7199   34.6399 H   0  0  0  0  0  0
   19.5994   14.6156   34.4893 H   0  0  0  0  0  0
   17.1661   15.2028   31.0392 H   0  0  0  0  0  0
   16.3380   14.2271   32.2123 H   0  0  0  0  0  0
   19.1249   15.4274   32.2851 H   0  0  0  0  0  0
   18.7187   13.7592   32.3061 H   0  0  0  0  0  0
  1  2  2  0  0  0
  1  3  1  0  0  0
  2  6  1  0  0  0
  2 17  1  0  0  0
  3  7  2  0  0  0
  3 20  1  0  0  0
  4 10  1  0  0  0
  4  5  1  0  0  0
  4 13  2  0  0  0
  5  9  1  0  0  0
  5 32  1  0  0  0
  6 27  1  0  0  0
  6 11  2  0  0  0
  7 11  1  0  0  0
  8  9  1  0  0  0
  8 14  2  0  0  0
  8 22  1  0  0  0
  9 16  1  0  0  0
  9 31  1  0  0  0
 10 19  1  0  0  0
 10 18  2  0  0  0
 11 33  1  0  0  0
 12 21  1  0  0  0
 12 15  2  0  0  0
 12 23  1  0  0  0
 16 21  1  0  0  0
 16 34  1  0  0  0
 16 35  1  0  0  0
 17 36  1  0  0  0
 17 37  1  0  0  0
 18 24  1  0  0  0
 18 38  1  0  0  0
 19 25  2  0  0  0
 19 39  1  0  0  0
 20 40  1  0  0  0
 20 41  1  0  0  0
 21 42  1  0  0  0
 21 43  1  0  0  0
 22 44  1  0  0  0
 23 45  1  0  0  0
 24 26  2  0  0  0
 24 46  1  0  0  0
 25 26  1  0  0  0
 25 47  1  0  0  0
 26 28  1  0  0  0
 27 29  1  0  0  0
 27 48  1  0  0  0
 27 49  1  0  0  0
 28 30  1  0  0  0
 28 50  1  0  0  0
 28 51  1  0  0  0
 29 30  1  0  0  0
 29 52  1  0  0  0
 29 53  1  0  0  0
 30 54  1  0  0  0
 30 55  1  0  0  0
M  END
> <s_m_entry_id>
41250

> <s_m_entry_name>
dock_pv.367

> <s_m_Source_Path>
/home/csk/Desktop/cluster/DUD-E-result/tysy

> <s_m_Source_File>
dock_pv.maegz

> <i_m_Source_File_Index>
367

> <chembl_id>
CHEMBL145947

> <chembl_pref_name>
None

> <i_lp_mmshare_version>
53161

> <r_lp_tautomer_probability>
0.999999624730965

> <s_lp_Force_Field>
OPLS_2005

> <r_lp_Energy>
4.036555

> <b_lp_Chiralities_Consistent>
1

> <s_lp_Variant>
CHEMBL1952_lig432-1

> <s_i_glide_gridfile>
glide-grid_1syn

> <i_i_glide_lignum>
843

> <i_i_glide_rotatable_bonds>
14

> <r_i_docking_score>
-7.46610445741331

> <r_i_glide_ligand_efficiency>
-0.248870148580444

> <r_i_glide_ligand_efficiency_sa>
-0.773297414554008

> <r_i_glide_ligand_efficiency_ln>
-1.69638028244797

> <r_i_glide_gscore>
-7.46610445741331

> <r_i_glide_lipo>
-2.82190471376263

> <r_i_glide_hbond>
-0.610327918067559

> <r_i_glide_metal>
0

> <r_i_glide_rewards>
-1.17164315669564

> <r_i_glide_evdw>
-47.1437873840332

> <r_i_glide_ecoul>
-12.1263513565063

> <r_i_glide_erotb>
1.37295163511738

> <r_i_glide_esite>
-0.0590382313272435

> <r_i_glide_emodel>
-84.3653053468812

> <r_i_glide_energy>
-59.2701387405396

> <r_i_glide_einternal>
7.77289390563965

> <i_i_glide_confnum>
362

> <i_i_glide_posenum>
164

> <r_i_glide_eff_state_penalty>
0

> <s_user_duplicate_titles>
CHEMBL1952_lig432

> <i_f3d_flags>
0

> <s_m_subgroup_title>
dock_pv

> <s_m_subgroupid>
dock_pv

> <b_m_subgroup_collapsed>
1

$$$$
CHEMBL1952_lig476
                    3D
 Schrodinger Suite 2021-1.
 19 21  0  0  1  0            999 V2000
   15.9965   15.4222   30.9570 C   0  0  0  0  0  0
   15.5674   15.4326   29.6281 C   0  0  0  0  0  0
   14.5957   16.3381   29.1925 C   0  0  0  0  0  0
   14.0280   17.2612   30.1067 C   0  0  0  0  0  0
   13.0411   18.2205   29.7677 C   0  0  0  0  0  0
   12.5479   19.0884   30.7470 C   0  0  0  0  0  0
   13.0081   19.0301   32.0645 C   0  0  0  0  0  0
   15.4546   16.3139   31.8855 C   0  0  0  0  0  0
   14.4783   17.2226   31.4509 C   0  0  0  0  0  0
   13.9776   18.0963   32.4239 C   0  0  0  0  0  0
   14.7261   17.8190   33.9873 S   0  0  0  0  0  0
   15.7696   16.4595   33.3203 C   0  0  0  0  0  0
   16.5767   15.8086   33.9799 O   0  0  0  0  0  0
   16.7505   14.7045   31.2533 H   0  0  0  0  0  0
   15.9960   14.7275   28.9304 H   0  0  0  0  0  0
   14.2729   16.3398   28.1609 H   0  0  0  0  0  0
   12.6742   18.2832   28.7522 H   0  0  0  0  0  0
   11.7954   19.8196   30.4835 H   0  0  0  0  0  0
   12.6131   19.7232   32.7943 H   0  0  0  0  0  0
  1  2  2  0  0  0
  1  8  1  0  0  0
  1 14  1  0  0  0
  2  3  1  0  0  0
  2 15  1  0  0  0
  3  4  2  0  0  0
  3 16  1  0  0  0
  4  9  1  0  0  0
  4  5  1  0  0  0
  5  6  2  0  0  0
  5 17  1  0  0  0
  6  7  1  0  0  0
  6 18  1  0  0  0
  7 10  2  0  0  0
  7 19  1  0  0  0
  8  9  2  0  0  0
  8 12  1  0  0  0
  9 10  1  0  0  0
 10 11  1  0  0  0
 11 12  1  0  0  0
 12 13  2  0  0  0
M  END
> <s_m_entry_id>
41251

> <s_m_entry_name>
dock_pv.368

> <s_m_Source_Path>
/home/csk/Desktop/cluster/DUD-E-result/tysy

> <s_m_Source_File>
dock_pv.maegz

> <i_m_Source_File_Index>
368

> <chembl_id>
CHEMBL2323364

> <chembl_pref_name>
None

> <i_lp_mmshare_version>
53161

> <r_lp_tautomer_probability>
1

> <s_lp_Force_Field>
OPLS_2005

> <r_lp_Energy>
27.799351

> <b_lp_Chiralities_Consistent>
1

> <s_lp_Variant>
CHEMBL1952_lig476-1

> <s_i_glide_gridfile>
glide-grid_1syn

> <i_i_glide_lignum>
906

> <i_i_glide_rotatable_bonds>
0

> <r_i_docking_score>
-7.46564222692914

> <r_i_glide_ligand_efficiency>
-0.574280171302241

> <r_i_glide_ligand_efficiency_sa>
-1.35032488609867

> <r_i_glide_ligand_efficiency_ln>
-2.09417904108605

> <r_i_glide_gscore>
-7.46564222692914

> <r_i_glide_lipo>
-2.83719169229104

> <r_i_glide_hbond>
0

> <r_i_glide_metal>
0

> <r_i_glide_rewards>
-2.77628942519062

> <r_i_glide_evdw>
-30.451530456543

> <r_i_glide_ecoul>
-2.19723057746887

> <r_i_glide_erotb>
0

> <r_i_glide_esite>
0

> <r_i_glide_emodel>
-47.8376270043648

> <r_i_glide_energy>
-32.6487610340118

> <r_i_glide_einternal>
0

> <i_i_glide_confnum>
1

> <i_i_glide_posenum>
205

> <r_i_glide_eff_state_penalty>
0

> <s_user_duplicate_titles>
CHEMBL1952_lig476

> <i_f3d_flags>
0

> <s_m_subgroup_title>
dock_pv

> <s_m_subgroupid>
dock_pv

> <b_m_subgroup_collapsed>
1

$$$$
CHEMBL1952_lig52
                    3D
 Schrodinger Suite 2021-1.
 28 30  0  0  1  0            999 V2000
   14.7620   16.9720   32.1518 C   0  0  0  0  0  0
   14.5213   17.9046   33.2637 C   0  0  0  0  0  0
   13.9844   17.1449   31.0366 C   0  0  0  0  0  0
   15.8236   15.9056   32.1698 C   0  0  0  0  0  0
   13.1031   18.1796   30.8844 N   0  0  0  0  0  0
   13.6590   18.9003   32.9876 N   0  0  0  0  0  0
   12.9889   19.0490   31.8201 C   0  0  0  0  0  0
   16.1999   15.2986   30.9502 C   0  0  0  0  0  0
   14.9920   17.8583   34.3911 O   0  0  0  0  0  0
   16.4325   15.4457   33.3528 C   0  0  0  0  0  0
   14.1323   16.2313   29.8237 C   0  0  0  0  0  0
   15.5969   15.7914   29.6398 C   0  0  0  0  0  0
   17.1442   14.2689   30.9498 C   0  0  0  0  0  0
   17.3872   14.4293   33.3321 C   0  0  0  0  0  0
   17.7485   13.8412   32.1267 C   0  0  0  0  0  0
   18.1918   13.7208   35.1246 I   0  0  0  0  0  0
   12.0901   20.2503   31.6753 C   0  0  0  0  0  0
   13.4844   19.5470   33.7506 H   0  0  0  0  0  0
   16.1575   15.8349   34.3185 H   0  0  0  0  0  0
   13.7762   16.7206   28.9158 H   0  0  0  0  0  0
   13.4910   15.3636   29.9811 H   0  0  0  0  0  0
   15.6664   15.0288   28.8616 H   0  0  0  0  0  0
   16.1889   16.6377   29.2936 H   0  0  0  0  0  0
   17.4103   13.7983   30.0164 H   0  0  0  0  0  0
   18.4753   13.0409   32.1045 H   0  0  0  0  0  0
   11.7922   20.4023   30.6377 H   0  0  0  0  0  0
   11.1838   20.1264   32.2645 H   0  0  0  0  0  0
   12.5918   21.1572   32.0091 H   0  0  0  0  0  0
  1  2  1  0  0  0
  1  4  1  0  0  0
  1  3  2  0  0  0
  2  9  2  0  0  0
  2  6  1  0  0  0
  3 11  1  0  0  0
  3  5  1  0  0  0
  4  8  2  0  0  0
  4 10  1  0  0  0
  5  7  2  0  0  0
  6  7  1  0  0  0
  6 18  1  0  0  0
  7 17  1  0  0  0
  8 12  1  0  0  0
  8 13  1  0  0  0
 10 14  2  0  0  0
 10 19  1  0  0  0
 11 12  1  0  0  0
 11 20  1  0  0  0
 11 21  1  0  0  0
 12 22  1  0  0  0
 12 23  1  0  0  0
 13 15  2  0  0  0
 13 24  1  0  0  0
 14 15  1  0  0  0
 14 16  1  0  0  0
 15 25  1  0  0  0
 17 26  1  0  0  0
 17 27  1  0  0  0
 17 28  1  0  0  0
M  END
> <s_m_entry_id>
41252

> <s_m_entry_name>
dock_pv.369

> <s_m_Source_Path>
/home/csk/Desktop/cluster/DUD-E-result/tysy

> <s_m_Source_File>
dock_pv.maegz

> <i_m_Source_File_Index>
369

> <chembl_id>
CHEMBL72496

> <chembl_pref_name>
None

> <i_lp_mmshare_version>
53161

> <r_lp_tautomer_probability>
0.839158042097895

> <s_lp_Force_Field>
OPLS_2005

> <r_lp_Energy>
20.507838

> <b_lp_Chiralities_Consistent>
1

> <s_lp_Variant>
CHEMBL1952_lig52-1

> <s_i_glide_gridfile>
glide-grid_1syn

> <i_i_glide_lignum>
72

> <i_i_glide_rotatable_bonds>
0

> <r_i_docking_score>
-7.46294623371721

> <r_i_glide_ligand_efficiency>
-0.438996837277483

> <r_i_glide_ligand_efficiency_sa>
-1.12878448498275

> <r_i_glide_ligand_efficiency_ln>
-1.94691648073522

> <r_i_glide_gscore>
-7.46294623371721

> <r_i_glide_lipo>
-3.13316770407242

> <r_i_glide_hbond>
-0.16

> <r_i_glide_metal>
0

> <r_i_glide_rewards>
-1.72060841920089

> <r_i_glide_evdw>
-38.1065330505371

> <r_i_glide_ecoul>
-3.6086049079895

> <r_i_glide_erotb>
0

> <r_i_glide_esite>
-0.00255272171861414

> <r_i_glide_emodel>
-61.2321014640565

> <r_i_glide_energy>
-41.7151379585266

> <r_i_glide_einternal>
0

> <i_i_glide_confnum>
1

> <i_i_glide_posenum>
5

> <r_i_glide_eff_state_penalty>
0

> <s_user_duplicate_titles>
CHEMBL1952_lig52,CHEMBL1952_lig52

> <i_f3d_flags>
0

> <s_m_subgroup_title>
dock_pv

> <s_m_subgroupid>
dock_pv

> <b_m_subgroup_collapsed>
1

$$$$
CHEMBL1952_lig84
                    3D
 Schrodinger Suite 2021-1.
 56 58  0  0  1  0            999 V2000
   16.4944   15.7262   32.6166 N   0  0  0  0  0  0
   15.5793   16.7615   32.7392 C   0  0  0  0  0  0
   14.8338   16.9864   31.6105 N   0  0  0  0  0  0
   17.2831   15.3338   33.7841 C   0  0  1  0  0  0
   16.5917   15.0260   31.4382 C   0  0  0  0  0  0
   15.8371   15.2752   30.3487 C   0  0  0  0  0  0
   14.8548   16.3483   30.4042 C   0  0  0  0  0  0
   15.0553   11.0661   37.2076 P   0  0  2  0  0  0
   16.5944   14.3947   34.5640 O   0  0  0  0  0  0
   12.8131    9.8125   36.2090 C   0  0  2  0  0  0
   18.7307   14.8426   33.6217 C   0  0  0  0  0  0
   13.8837   10.7974   36.0300 N   0  0  3  0  0  0
   17.5023   13.5815   35.2953 C   0  0  2  0  0  0
   13.2273    8.4292   35.7260 C   0  0  0  0  0  0
   18.6995   13.4964   34.3333 C   0  0  1  0  0  0
   16.8618   12.2210   35.6632 C   0  0  0  0  0  0
   15.3914   17.4648   33.7327 O   0  0  0  0  0  0
   15.8766   12.3687   36.6723 O   0  0  0  0  0  0
   11.4859   10.2741   35.5567 C   0  0  0  0  0  0
   15.8901    9.8940   37.5877 O   0  0  0  0  0  0
   14.1085   16.6700   29.4828 O   0  0  0  0  0  0
   14.0091    8.2286   34.7914 O   0  0  0  0  0  0
   15.9538   14.5418   29.2202 F   0  0  0  0  0  0
   14.1926   11.6949   38.4226 O   0  0  0  0  0  0
   12.6383    7.4630   36.4632 O   0  0  0  0  0  0
   18.5920   12.4343   33.4099 O   0  0  0  0  0  0
   10.7445   11.3598   36.3323 C   0  0  0  0  0  0
   12.8972    6.0917   36.2002 C   0  0  0  0  0  0
    9.5438   11.0544   37.0102 C   0  0  0  0  0  0
   11.2795   12.6610   36.4559 C   0  0  0  0  0  0
   10.6076   13.6274   37.1924 C   0  0  0  0  0  0
    8.8849   12.0363   37.7410 C   0  0  0  0  0  0
    9.4114   13.3193   37.8264 C   0  0  0  0  0  0
   14.1657   17.7390   31.6840 H   0  0  0  0  0  0
   17.3471   16.2306   34.3911 H   0  0  0  0  0  0
   17.3027   14.2127   31.4631 H   0  0  0  0  0  0
   12.6407    9.7180   37.2832 H   0  0  0  0  0  0
   19.3926   15.5389   34.1417 H   0  0  0  0  0  0
   19.0576   14.7961   32.5814 H   0  0  0  0  0  0
   13.9739   11.2272   35.1098 H   0  0  0  0  0  0
   17.7794   14.1047   36.2107 H   0  0  0  0  0  0
   19.6196   13.3442   34.8982 H   0  0  0  0  0  0
   17.6390   11.5526   36.0396 H   0  0  0  0  0  0
   16.4299   11.7383   34.7912 H   0  0  0  0  0  0
   10.8003    9.4321   35.4432 H   0  0  0  0  0  0
   11.6703   10.6290   34.5414 H   0  0  0  0  0  0
   14.5738   12.5165   38.7839 H   0  0  0  0  0  0
   19.4361   12.3178   32.9430 H   0  0  0  0  0  0
   12.3374    5.4657   36.8953 H   0  0  0  0  0  0
   12.5930    5.8233   35.1886 H   0  0  0  0  0  0
   13.9583    5.8601   36.3154 H   0  0  0  0  0  0
    9.1256   10.0600   36.9565 H   0  0  0  0  0  0
   12.2184   12.9178   35.9912 H   0  0  0  0  0  0
   11.0183   14.6240   37.2650 H   0  0  0  0  0  0
    7.9577   11.8014   38.2415 H   0  0  0  0  0  0
    8.8925   14.0829   38.3883 H   0  0  0  0  0  0
  1  2  1  0  0  0
  1  4  1  0  0  0
  1  5  1  0  0  0
  2  3  1  0  0  0
  2 17  2  0  0  0
  3  7  1  0  0  0
  3 34  1  0  0  0
  4  9  1  0  0  0
  4 11  1  0  0  0
  4 35  1  0  0  0
  5  6  2  0  0  0
  5 36  1  0  0  0
  6  7  1  0  0  0
  6 23  1  0  0  0
  7 21  2  0  0  0
  8 18  1  0  0  0
  8 12  1  0  0  0
  8 20  2  0  0  0
  8 24  1  0  0  0
  9 13  1  0  0  0
 10 12  1  0  0  0
 10 14  1  0  0  0
 10 19  1  0  0  0
 10 37  1  0  0  0
 11 15  1  0  0  0
 11 38  1  0  0  0
 11 39  1  0  0  0
 12 40  1  0  0  0
 13 16  1  0  0  0
 13 15  1  0  0  0
 13 41  1  0  0  0
 14 22  2  0  0  0
 14 25  1  0  0  0
 15 26  1  0  0  0
 15 42  1  0  0  0
 16 18  1  0  0  0
 16 43  1  0  0  0
 16 44  1  0  0  0
 19 27  1  0  0  0
 19 45  1  0  0  0
 19 46  1  0  0  0
 24 47  1  0  0  0
 25 28  1  0  0  0
 26 48  1  0  0  0
 27 29  2  0  0  0
 27 30  1  0  0  0
 28 49  1  0  0  0
 28 50  1  0  0  0
 28 51  1  0  0  0
 29 32  1  0  0  0
 29 52  1  0  0  0
 30 31  2  0  0  0
 30 53  1  0  0  0
 31 33  1  0  0  0
 31 54  1  0  0  0
 32 33  2  0  0  0
 32 55  1  0  0  0
 33 56  1  0  0  0
M  END
> <s_m_entry_id>
41254

> <s_m_entry_name>
dock_pv.371

> <s_m_Source_Path>
/home/csk/Desktop/cluster/DUD-E-result/tysy

> <s_m_Source_File>
dock_pv.maegz

> <i_m_Source_File_Index>
371

> <chembl_id>
CHEMBL96148

> <chembl_pref_name>
None

> <i_lp_mmshare_version>
53161

> <r_lp_tautomer_probability>
0.999537046341301

> <s_lp_Force_Field>
OPLS_2005

> <r_lp_Energy>
6.090695

> <b_lp_Chiralities_Consistent>
1

> <s_lp_Variant>
CHEMBL1952_lig84-8

> <s_i_glide_gridfile>
glide-grid_1syn

> <i_i_glide_lignum>
141

> <i_i_glide_rotatable_bonds>
12

> <r_i_docking_score>
-7.4575804085417

> <r_i_glide_ligand_efficiency>
-0.225987285107324

> <r_i_glide_ligand_efficiency_sa>
-0.724861974279469

> <r_i_glide_ligand_efficiency_ln>
-1.65852726957486

> <r_i_glide_gscore>
-7.4575804085417

> <r_i_glide_lipo>
-1.87361252762948

> <r_i_glide_hbond>
-0.652628669636829

> <r_i_glide_metal>
0

> <r_i_glide_rewards>
-1.75184402211918

> <r_i_glide_evdw>
-46.8138313293457

> <r_i_glide_ecoul>
-10.1564874649048

> <r_i_glide_erotb>
0.68466949704679

> <r_i_glide_esite>
0

> <r_i_glide_emodel>
-80.6196770144626

> <r_i_glide_energy>
-56.9703187942505

> <r_i_glide_einternal>
5.42831039428711

> <i_i_glide_confnum>
104

> <i_i_glide_posenum>
219

> <r_i_glide_eff_state_penalty>
0

> <s_user_duplicate_titles>
CHEMBL1952_lig84

> <i_f3d_flags>
0

> <s_m_subgroup_title>
dock_pv

> <s_m_subgroupid>
dock_pv

> <b_m_subgroup_collapsed>
1

$$$$
CHEMBL1952_lig67
                    3D
 Schrodinger Suite 2021-1.
 27 29  0  0  1  0            999 V2000
   16.0784   16.0909   33.0540 C   0  0  0  0  0  0
   15.6036   16.1183   31.6866 C   0  0  0  0  0  0
   17.1533   15.3586   33.4300 N   0  0  0  0  0  0
   17.7328   14.5799   32.5011 C   0  0  0  0  0  0
   17.3449   14.4470   31.2218 N   0  0  0  0  0  0
   16.2931   15.2073   30.8186 C   0  0  0  0  0  0
   14.5515   16.9344   31.1323 C   0  0  0  0  0  0
   12.0223   19.6101   32.0592 C   0  0  0  0  0  0
   11.3920   20.3623   32.7850 C   0  0  0  0  0  0
   15.3940   16.7809   34.0083 O   0  0  0  0  0  0
   13.8253   17.9421   31.8535 C   0  0  0  0  0  0
   14.2021   16.7691   29.7515 C   0  0  0  0  0  0
   15.8970   15.0571   29.4830 C   0  0  0  0  0  0
   18.8217   13.8280   32.9072 N   0  0  0  0  0  0
   12.7903   18.6666   31.2610 C   0  0  0  0  0  0
   14.8750   15.8225   28.9601 C   0  0  0  0  0  0
   13.1846   17.5586   29.1678 C   0  0  0  0  0  0
   12.4766   18.4799   29.9230 C   0  0  0  0  0  0
   10.9172   21.0281   33.4679 H   0  0  0  0  0  0
   14.5136   17.0075   33.7144 H   0  0  0  0  0  0
   14.0520   18.2117   32.8672 H   0  0  0  0  0  0
   16.4064   14.3393   28.8560 H   0  0  0  0  0  0
   19.2911   13.2160   32.2414 H   0  0  0  0  0  0
   19.1495   13.9156   33.8543 H   0  0  0  0  0  0
   14.5917   15.6971   27.9239 H   0  0  0  0  0  0
   12.9553   17.4330   28.1195 H   0  0  0  0  0  0
   11.6805   19.0482   29.4591 H   0  0  0  0  0  0
  1  2  1  0  0  0
  1  3  2  0  0  0
  1 10  1  0  0  0
  2  6  2  0  0  0
  2  7  1  0  0  0
  3  4  1  0  0  0
  4  5  2  0  0  0
  4 14  1  0  0  0
  5  6  1  0  0  0
  6 13  1  0  0  0
  7 11  2  0  0  0
  7 12  1  0  0  0
  8 15  1  0  0  0
  8  9  3  0  0  0
  9 19  1  0  0  0
 10 20  1  0  0  0
 11 15  1  0  0  0
 11 21  1  0  0  0
 12 16  1  0  0  0
 12 17  2  0  0  0
 13 16  2  0  0  0
 13 22  1  0  0  0
 14 23  1  0  0  0
 14 24  1  0  0  0
 15 18  2  0  0  0
 16 25  1  0  0  0
 17 18  1  0  0  0
 17 26  1  0  0  0
 18 27  1  0  0  0
M  END
> <s_m_entry_id>
41255

> <s_m_entry_name>
dock_pv.372

> <s_m_Source_Path>
/home/csk/Desktop/cluster/DUD-E-result/tysy

> <s_m_Source_File>
dock_pv.maegz

> <i_m_Source_File_Index>
372

> <chembl_id>
CHEMBL423859

> <chembl_pref_name>
None

> <i_lp_mmshare_version>
53161

> <r_lp_tautomer_probability>
1

> <s_lp_Force_Field>
OPLS_2005

> <r_lp_Energy>
13.426358

> <b_lp_Chiralities_Consistent>
1

> <s_lp_Variant>
CHEMBL1952_lig67-1

> <s_i_glide_gridfile>
glide-grid_1syn

> <i_i_glide_lignum>
101

> <i_i_glide_rotatable_bonds>
2

> <r_i_docking_score>
-7.45588770329751

> <r_i_glide_ligand_efficiency>
-0.414215983516528

> <r_i_glide_ligand_efficiency_sa>
-1.08555297309883

> <r_i_glide_ligand_efficiency_ln>
-1.91649748848925

> <r_i_glide_gscore>
-7.45588770329751

> <r_i_glide_lipo>
-3.03605014238709

> <r_i_glide_hbond>
-0.159085602264875

> <r_i_glide_metal>
0

> <r_i_glide_rewards>
-2.19503741840455

> <r_i_glide_evdw>
-36.5243339538574

> <r_i_glide_ecoul>
-3.11835336685181

> <r_i_glide_erotb>
0.310668123357239

> <r_i_glide_esite>
-0.0824129608775939

> <r_i_glide_emodel>
-57.7865957119283

> <r_i_glide_energy>
-39.6426873207092

> <r_i_glide_einternal>
0.177470788359642

> <i_i_glide_confnum>
1

> <i_i_glide_posenum>
352

> <r_i_glide_eff_state_penalty>
0

> <s_user_duplicate_titles>
CHEMBL1952_lig67

> <i_f3d_flags>
0

> <s_m_subgroup_title>
dock_pv

> <s_m_subgroupid>
dock_pv

> <b_m_subgroup_collapsed>
1

$$$$
CHEMBL1952_lig199
                    3D
 Schrodinger Suite 2021-1.
 61 63  0  0  1  0            999 V2000
   18.9920   12.3414   34.3790 N   0  0  0  0  0  0
   18.6469   13.6437   34.1232 C   0  0  0  0  0  0
   17.5893   14.1598   34.6395 N   0  0  0  0  0  0
   18.2932   11.4364   35.1068 C   0  0  0  0  0  0
   19.5384   14.4688   33.2034 C   0  0  0  0  0  0
   18.6842   10.2828   35.2579 O   0  0  0  0  0  0
   17.0262   12.0215   35.6876 C   0  0  0  0  0  0
   16.7511   13.3700   35.4391 C   0  0  0  0  0  0
   15.6168   13.9592   35.9910 C   0  0  0  0  0  0
   14.7706   13.2062   36.8065 C   0  0  0  0  0  0
   15.0527   11.8593   37.0710 C   0  0  0  0  0  0
   16.1773   11.2582   36.4914 C   0  0  0  0  0  0
   14.1964   11.0818   38.0651 C   0  0  0  0  0  0
   13.4217   10.0075   37.4214 N   0  0  0  0  0  0
   12.3628   10.3900   36.5518 C   0  0  0  0  0  0
   11.5661   11.5061   36.8472 C   0  0  0  0  0  0
   10.5020   11.8664   36.0278 C   0  0  0  0  0  0
   10.2109   11.1279   34.8772 C   0  0  0  0  0  0
   11.0116   10.0246   34.5632 C   0  0  0  0  0  0
   12.0661    9.6588   35.3925 C   0  0  0  0  0  0
    9.0418   11.5287   34.0118 C   0  0  0  0  0  0
    8.1364   12.2280   34.4690 O   0  0  0  0  0  0
    9.0759   11.1213   32.7323 N   0  0  0  0  0  0
    8.0804   11.4590   31.7139 C   0  0  1  0  0  0
    8.4808   12.7811   30.9989 C   0  0  0  0  0  0
    7.8347   10.2490   30.7916 C   0  0  0  0  0  0
    8.9920    9.8280   30.2131 O   0  0  0  0  0  0
    6.7517    9.7290   30.6480 O   0  0  0  0  0  0
    9.8013   12.7514   30.1839 C   0  0  0  0  0  0
   10.1920   14.1049   29.5919 C   0  0  0  0  0  0
   11.5446   14.2719   29.5910 O   0  0  0  0  0  0
    9.3952   14.9507   29.1932 O   0  0  0  0  0  0
   13.9736    8.6426   37.3190 C   0  0  0  0  0  0
   19.1989   14.2280   31.8469 O   0  0  0  0  0  0
   14.6341    8.0704   38.5904 C   0  0  0  0  0  0
   15.7920    8.6282   38.9448 F   0  0  0  0  0  0
   19.8485   11.9798   33.9605 H   0  0  0  0  0  0
   19.4153   15.5310   33.4137 H   0  0  0  0  0  0
   20.5915   14.2315   33.3614 H   0  0  0  0  0  0
   15.4092   15.0019   35.8030 H   0  0  0  0  0  0
   13.9096   13.6823   37.2525 H   0  0  0  0  0  0
   16.4147   10.2269   36.7109 H   0  0  0  0  0  0
   13.5537   11.7575   38.6270 H   0  0  0  0  0  0
   14.8679   10.6845   38.8208 H   0  0  0  0  0  0
   11.7308   12.0970   37.7325 H   0  0  0  0  0  0
    9.9034   12.7254   36.2991 H   0  0  0  0  0  0
   10.8268    9.4280   33.6817 H   0  0  0  0  0  0
   12.6523    8.8027   35.0982 H   0  0  0  0  0  0
    9.8212   10.5209   32.4143 H   0  0  0  0  0  0
    7.1268   11.6366   32.2164 H   0  0  0  0  0  0
    8.5709   13.5639   31.7548 H   0  0  0  0  0  0
    7.6436   13.1142   30.3910 H   0  0  0  0  0  0
    8.8315    9.0487   29.6759 H   0  0  0  0  0  0
    9.7920   12.0388   29.3619 H   0  0  0  0  0  0
   10.5921   12.4148   30.8494 H   0  0  0  0  0  0
   12.0267   13.4752   29.8520 H   0  0  0  0  0  0
   13.2334    7.9220   36.9689 H   0  0  0  0  0  0
   14.7344    8.6919   36.5394 H   0  0  0  0  0  0
   19.5305   13.3450   31.5910 H   0  0  0  0  0  0
   13.9632    8.1668   39.4445 H   0  0  0  0  0  0
   14.8303    7.0054   38.4651 H   0  0  0  0  0  0
  1  2  1  0  0  0
  1  4  1  0  0  0
  1 37  1  0  0  0
  2  5  1  0  0  0
  2  3  2  0  0  0
  3  8  1  0  0  0
  4  7  1  0  0  0
  4  6  2  0  0  0
  5 34  1  0  0  0
  5 38  1  0  0  0
  5 39  1  0  0  0
  7 12  1  0  0  0
  7  8  2  0  0  0
  8  9  1  0  0  0
  9 10  2  0  0  0
  9 40  1  0  0  0
 10 11  1  0  0  0
 10 41  1  0  0  0
 11 12  2  0  0  0
 11 13  1  0  0  0
 12 42  1  0  0  0
 13 14  1  0  0  0
 13 43  1  0  0  0
 13 44  1  0  0  0
 14 15  1  0  0  0
 14 33  1  0  0  0
 15 20  1  0  0  0
 15 16  2  0  0  0
 16 17  1  0  0  0
 16 45  1  0  0  0
 17 18  2  0  0  0
 17 46  1  0  0  0
 18 19  1  0  0  0
 18 21  1  0  0  0
 19 20  2  0  0  0
 19 47  1  0  0  0
 20 48  1  0  0  0
 21 22  2  0  0  0
 21 23  1  0  0  0
 23 24  1  0  0  0
 23 49  1  0  0  0
 24 25  1  0  0  0
 24 26  1  0  0  0
 24 50  1  0  0  0
 25 29  1  0  0  0
 25 51  1  0  0  0
 25 52  1  0  0  0
 26 27  1  0  0  0
 26 28  2  0  0  0
 27 53  1  0  0  0
 29 30  1  0  0  0
 29 54  1  0  0  0
 29 55  1  0  0  0
 30 31  1  0  0  0
 30 32  2  0  0  0
 31 56  1  0  0  0
 33 35  1  0  0  0
 33 57  1  0  0  0
 33 58  1  0  0  0
 34 59  1  0  0  0
 35 36  1  0  0  0
 35 60  1  0  0  0
 35 61  1  0  0  0
M  END
> <s_m_entry_id>
41257

> <s_m_entry_name>
dock_pv.374

> <s_m_Source_Path>
/home/csk/Desktop/cluster/DUD-E-result/tysy

> <s_m_Source_File>
dock_pv.maegz

> <i_m_Source_File_Index>
374

> <chembl_id>
CHEMBL104846

> <chembl_pref_name>
None

> <i_lp_mmshare_version>
53161

> <r_lp_tautomer_probability>
0.883938

> <s_lp_Force_Field>
OPLS_2005

> <r_lp_Energy>
23.197698

> <b_lp_Chiralities_Consistent>
1

> <s_lp_Variant>
CHEMBL1952_lig199-1

> <s_i_glide_gridfile>
glide-grid_1syn

> <i_i_glide_lignum>
395

> <i_i_glide_rotatable_bonds>
16

> <r_i_docking_score>
-7.45260267851619

> <r_i_glide_ligand_efficiency>
-0.207016741069894

> <r_i_glide_ligand_efficiency_sa>
-0.683554217499537

> <r_i_glide_ligand_efficiency_ln>
-1.62595655839626

> <r_i_glide_gscore>
-7.45260267851619

> <r_i_glide_lipo>
-1.98249630975409

> <r_i_glide_hbond>
-0.32

> <r_i_glide_metal>
0

> <r_i_glide_rewards>
-0.415110032033459

> <r_i_glide_evdw>
-46.4493789672852

> <r_i_glide_ecoul>
-21.4202251434326

> <r_i_glide_erotb>
0.978290729900132

> <r_i_glide_esite>
-0.177784346749626

> <r_i_glide_emodel>
-93.7809033573238

> <r_i_glide_energy>
-67.8696041107178

> <r_i_glide_einternal>
8.31697654724121

> <i_i_glide_confnum>
21

> <i_i_glide_posenum>
394

> <r_i_glide_eff_state_penalty>
0

> <s_user_duplicate_titles>
CHEMBL1952_lig199,171043

> <i_f3d_flags>
0

> <s_m_subgroup_title>
dock_pv

> <s_m_subgroupid>
dock_pv

> <b_m_subgroup_collapsed>
1

$$$$
CHEMBL1952_lig342
                    3D
 Schrodinger Suite 2021-1.
 58 60  0  0  1  0            999 V2000
   13.9395   17.5785   31.7150 N   0  0  0  0  0  0
   15.0144   16.7737   31.9003 C   0  0  0  0  0  0
   13.5715   16.5233   29.5877 N   0  0  0  0  0  0
   15.4518   15.8279   30.9518 C   0  0  0  0  0  0
   14.6610   15.7472   29.7978 C   0  0  0  0  0  0
   13.2754   17.4192   30.5511 C   0  0  0  0  0  0
   16.6788   11.1332   35.9220 C   0  0  0  0  0  0
   15.5907   10.4141   36.5377 C   0  0  0  0  0  0
   16.6335   12.8487   35.5908 S   0  0  0  0  0  0
   14.3541   10.8249   36.1809 N   0  0  0  0  0  0
   15.6349   16.8960   33.1483 N   0  0  0  0  0  0
   13.0499   10.2069   36.5278 C   0  0  1  0  0  0
   17.9257   10.6220   35.5917 C   0  0  0  0  0  0
   12.9251    8.8257   35.7862 C   0  0  0  0  0  0
   18.2440   12.8340   34.8994 C   0  0  0  0  0  0
   18.7765   11.5550   35.0091 C   0  0  0  0  0  0
   16.7206   15.0004   31.1712 C   0  0  0  0  0  0
   12.3706   11.4343   40.2186 C   0  0  0  0  0  0
   15.7928    9.4743   37.3062 O   0  0  0  0  0  0
   13.7681    8.3323   35.0589 O   0  0  0  0  0  0
   12.8590   10.0415   38.0770 C   0  0  0  0  0  0
   12.8596   11.3733   41.3442 O   0  0  0  0  0  0
   14.9917   14.8714   28.7730 N   0  0  0  0  0  0
   12.1932   18.2541   30.3223 N   0  0  0  0  0  0
   16.9698   16.3322   33.3325 C   0  0  0  0  0  0
   13.1886   11.3024   38.9303 C   0  0  0  0  0  0
   18.9224   14.0588   34.3191 C   0  0  0  0  0  0
   11.6962    8.2700   35.9919 O   0  0  0  0  0  0
   17.1178   14.9520   32.6564 C   0  0  2  0  0  0
   11.0505   11.6555   39.9584 O   0  0  0  0  0  0
   18.5297   14.3528   32.8529 C   0  0  0  0  0  0
   11.9364   11.1404   35.9831 C   0  0  0  0  0  0
   14.3227   11.4813   35.4171 H   0  0  0  0  0  0
   15.4018   17.6968   33.7158 H   0  0  0  0  0  0
   18.2196    9.5965   35.7349 H   0  0  0  0  0  0
   19.7730   11.3071   34.6717 H   0  0  0  0  0  0
   17.5323   15.4290   30.5869 H   0  0  0  0  0  0
   16.5995   13.9830   30.7956 H   0  0  0  0  0  0
   13.4847    9.2245   38.4428 H   0  0  0  0  0  0
   11.8360    9.7076   38.2664 H   0  0  0  0  0  0
   15.8001   14.2777   28.8650 H   0  0  0  0  0  0
   14.4265   14.8763   27.9345 H   0  0  0  0  0  0
   11.6788   18.1914   29.4556 H   0  0  0  0  0  0
   11.9642   18.9596   31.0038 H   0  0  0  0  0  0
   17.1239   16.2278   34.3912 H   0  0  0  0  0  0
   17.7448   17.0271   33.0283 H   0  0  0  0  0  0
   13.0333   12.2195   38.3626 H   0  0  0  0  0  0
   14.2515   11.3048   39.1780 H   0  0  0  0  0  0
   18.7652   14.9287   34.9559 H   0  0  0  0  0  0
   20.0041   13.8988   34.3403 H   0  0  0  0  0  0
   11.5543    7.5549   35.3585 H   0  0  0  0  0  0
   16.4270   14.2820   33.1535 H   0  0  0  0  0  0
   10.8770   11.6813   39.0162 H   0  0  0  0  0  0
   19.2657   15.0275   32.4156 H   0  0  0  0  0  0
   18.6226   13.4292   32.2755 H   0  0  0  0  0  0
   10.9486   10.8678   36.3571 H   0  0  0  0  0  0
   12.1024   12.1838   36.2513 H   0  0  0  0  0  0
   11.8710   11.0904   34.8928 H   0  0  0  0  0  0
  1  2  2  0  0  0
  1  6  1  0  0  0
  2  4  1  0  0  0
  2 11  1  0  0  0
  3  6  2  0  0  0
  3  5  1  0  0  0
  4 17  1  0  0  0
  4  5  2  0  0  0
  5 23  1  0  0  0
  6 24  1  0  0  0
  7  9  1  0  0  0
  7  8  1  0  0  0
  7 13  2  0  0  0
  8 10  1  0  0  0
  8 19  2  0  0  0
  9 15  1  0  0  0
 10 12  1  0  0  0
 10 33  1  0  0  0
 11 25  1  0  0  0
 11 34  1  0  0  0
 12 14  1  0  0  0
 12 21  1  0  0  0
 12 32  1  0  0  0
 13 16  1  0  0  0
 13 35  1  0  0  0
 14 20  2  0  0  0
 14 28  1  0  0  0
 15 27  1  0  0  0
 15 16  2  0  0  0
 16 36  1  0  0  0
 17 29  1  0  0  0
 17 37  1  0  0  0
 17 38  1  0  0  0
 18 26  1  0  0  0
 18 22  2  0  0  0
 18 30  1  0  0  0
 21 26  1  0  0  0
 21 39  1  0  0  0
 21 40  1  0  0  0
 23 41  1  0  0  0
 23 42  1  0  0  0
 24 43  1  0  0  0
 24 44  1  0  0  0
 25 29  1  0  0  0
 25 45  1  0  0  0
 25 46  1  0  0  0
 26 47  1  0  0  0
 26 48  1  0  0  0
 27 31  1  0  0  0
 27 49  1  0  0  0
 27 50  1  0  0  0
 28 51  1  0  0  0
 29 31  1  0  0  0
 29 52  1  0  0  0
 30 53  1  0  0  0
 31 54  1  0  0  0
 31 55  1  0  0  0
 32 56  1  0  0  0
 32 57  1  0  0  0
 32 58  1  0  0  0
M  END
> <s_m_entry_id>
41258

> <s_m_entry_name>
dock_pv.375

> <s_m_Source_Path>
/home/csk/Desktop/cluster/DUD-E-result/tysy

> <s_m_Source_File>
dock_pv.maegz

> <i_m_Source_File_Index>
375

> <chembl_id>
CHEMBL168069

> <chembl_pref_name>
None

> <i_lp_mmshare_version>
53161

> <r_lp_tautomer_probability>
1

> <s_lp_Force_Field>
OPLS_2005

> <r_lp_Energy>
8.916932

> <b_lp_Chiralities_Consistent>
1

> <s_lp_Variant>
CHEMBL1952_lig342-1

> <s_i_glide_gridfile>
glide-grid_1syn

> <i_i_glide_lignum>
623

> <i_i_glide_rotatable_bonds>
12

> <r_i_docking_score>
-7.44871821639665

> <r_i_glide_ligand_efficiency>
-0.232772444262395

> <r_i_glide_ligand_efficiency_sa>
-0.739006444928937

> <r_i_glide_ligand_efficiency_ln>
-1.66797105304118

> <r_i_glide_gscore>
-7.44871821639665

> <r_i_glide_lipo>
-2.54525870113691

> <r_i_glide_hbond>
-0.439792496501594

> <r_i_glide_metal>
0

> <r_i_glide_rewards>
-0.871090297307603

> <r_i_glide_evdw>
-48.8770446777344

> <r_i_glide_ecoul>
-13.6677570343018

> <r_i_glide_erotb>
0.941654033892561

> <r_i_glide_esite>
-0.0402149663111235

> <r_i_glide_emodel>
-84.1469971690174

> <r_i_glide_energy>
-62.5448017120361

> <r_i_glide_einternal>
14.6955013275146

> <i_i_glide_confnum>
381

> <i_i_glide_posenum>
363

> <r_i_glide_eff_state_penalty>
0

> <s_user_duplicate_titles>
CHEMBL1952_lig342

> <i_f3d_flags>
0

> <s_m_subgroup_title>
dock_pv

> <s_m_subgroupid>
dock_pv

> <b_m_subgroup_collapsed>
1

$$$$
CHEMBL1952_lig86
                    3D
 Schrodinger Suite 2021-1.
 28 30  0  0  1  0            999 V2000
   14.5946   16.5833   29.5070 C   0  0  0  0  0  0
   14.7647   16.6325   30.9419 C   0  0  0  0  0  0
   13.7680   17.4279   28.8432 N   0  0  0  0  0  0
   13.0338   18.2807   29.5799 C   0  0  0  0  0  0
   13.0207   18.3647   30.9191 N   0  0  0  0  0  0
   15.6971   15.8829   31.7474 C   0  0  0  0  0  0
   13.8771   17.5495   31.5881 C   0  0  0  0  0  0
   15.6479   16.0027   33.1814 C   0  0  0  0  0  0
   14.6591   16.8494   33.7680 C   0  0  0  0  0  0
   13.8356   17.6311   32.9798 C   0  0  0  0  0  0
   16.7152   15.0285   31.2000 C   0  0  0  0  0  0
   15.2374   15.6257   28.7887 O   0  0  0  0  0  0
   16.5883   15.2753   33.9694 C   0  0  0  0  0  0
   12.1922   19.1481   28.9033 N   0  0  0  0  0  0
   17.5466   14.4614   33.3863 C   0  0  0  0  0  0
   17.6103   14.3391   32.0097 C   0  0  0  0  0  0
   18.6585   13.6005   34.3901 Cl  0  0  0  0  0  0
   14.4309   16.9418   35.2640 C   0  0  0  0  0  0
   13.1234   18.3049   33.4395 H   0  0  0  0  0  0
   16.8672   14.9032   30.1458 H   0  0  0  0  0  0
   14.9595   15.6677   27.8705 H   0  0  0  0  0  0
   16.5964   15.3426   35.0427 H   0  0  0  0  0  0
   11.4732   19.6156   29.4402 H   0  0  0  0  0  0
   12.0608   19.0036   27.9165 H   0  0  0  0  0  0
   18.3692   13.7101   31.5626 H   0  0  0  0  0  0
   15.0103   16.2685   35.8885 H   0  0  0  0  0  0
   14.5988   17.9659   35.5909 H   0  0  0  0  0  0
   13.3861   16.7111   35.4564 H   0  0  0  0  0  0
  1  2  1  0  0  0
  1  3  2  0  0  0
  1 12  1  0  0  0
  2  6  2  0  0  0
  2  7  1  0  0  0
  3  4  1  0  0  0
  4  5  2  0  0  0
  4 14  1  0  0  0
  5  7  1  0  0  0
  6  8  1  0  0  0
  6 11  1  0  0  0
  7 10  2  0  0  0
  8 13  1  0  0  0
  8  9  2  0  0  0
  9 10  1  0  0  0
  9 18  1  0  0  0
 10 19  1  0  0  0
 11 16  2  0  0  0
 11 20  1  0  0  0
 12 21  1  0  0  0
 13 15  2  0  0  0
 13 22  1  0  0  0
 14 23  1  0  0  0
 14 24  1  0  0  0
 15 16  1  0  0  0
 15 17  1  0  0  0
 16 25  1  0  0  0
 18 26  1  0  0  0
 18 27  1  0  0  0
 18 28  1  0  0  0
M  END
> <s_m_entry_id>
41259

> <s_m_entry_name>
dock_pv.376

> <s_m_Source_Path>
/home/csk/Desktop/cluster/DUD-E-result/tysy

> <s_m_Source_File>
dock_pv.maegz

> <i_m_Source_File_Index>
376

> <chembl_id>
CHEMBL73755

> <chembl_pref_name>
None

> <i_lp_mmshare_version>
53161

> <r_lp_tautomer_probability>
1

> <s_lp_Force_Field>
OPLS_2005

> <r_lp_Energy>
14.93494

> <b_lp_Chiralities_Consistent>
1

> <s_lp_Variant>
CHEMBL1952_lig86-1

> <s_i_glide_gridfile>
glide-grid_1syn

> <i_i_glide_lignum>
154

> <i_i_glide_rotatable_bonds>
1

> <r_i_docking_score>
-7.44320297271256

> <r_i_glide_ligand_efficiency>
-0.413511276261809

> <r_i_glide_ligand_efficiency_sa>
-1.08370611762737

> <r_i_glide_ligand_efficiency_ln>
-1.91323694390011

> <r_i_glide_gscore>
-7.44320297271256

> <r_i_glide_lipo>
-2.90393424420738

> <r_i_glide_hbond>
-0.198507170819636

> <r_i_glide_metal>
0

> <r_i_glide_rewards>
-2.01139999473049

> <r_i_glide_evdw>
-36.7032775878906

> <r_i_glide_ecoul>
-3.00426173210144

> <r_i_glide_erotb>
0

> <r_i_glide_esite>
-0.0435584237453083

> <r_i_glide_emodel>
-56.0912135162882

> <r_i_glide_energy>
-39.7075393199921

> <r_i_glide_einternal>
1.02978014945984

> <i_i_glide_confnum>
1

> <i_i_glide_posenum>
361

> <r_i_glide_eff_state_penalty>
0

> <s_user_duplicate_titles>
CHEMBL1952_lig86

> <i_f3d_flags>
0

> <s_m_subgroup_title>
dock_pv

> <s_m_subgroupid>
dock_pv

> <b_m_subgroup_collapsed>
1

$$$$
CHEMBL1952_lig232
                    3D
 Schrodinger Suite 2021-1.
 62 64  0  0  1  0            999 V2000
   14.1624   17.8270   31.3449 N   0  0  0  0  0  0
   14.2642   17.2046   30.1316 C   0  0  0  0  0  0
   15.0423   16.1971   29.9657 N   0  0  0  0  0  0
   14.8141   17.5030   32.4871 C   0  0  0  0  0  0
   14.6725   18.1538   33.5172 O   0  0  0  0  0  0
   15.7235   16.3112   32.3154 C   0  0  0  0  0  0
   15.7930   15.7124   31.0540 C   0  0  0  0  0  0
   16.6377   14.6210   30.8603 C   0  0  0  0  0  0
   17.3928   14.1214   31.9291 C   0  0  0  0  0  0
   17.3088   14.7158   33.1977 C   0  0  0  0  0  0
   16.4863   15.8320   33.3791 C   0  0  0  0  0  0
   18.1553   14.2008   34.3619 C   0  0  0  0  0  0
   17.8237   12.8203   34.7825 N   0  0  0  0  0  0
   16.6548   12.5584   35.5689 C   0  0  0  0  0  0
   16.3211   11.2812   36.0489 C   0  0  0  0  0  0
   15.1795   11.0508   36.8052 C   0  0  0  0  0  0
   14.3040   12.0878   37.1454 C   0  0  0  0  0  0
   14.6153   13.3812   36.6563 C   0  0  0  0  0  0
   15.7666   13.5837   35.8974 C   0  0  0  0  0  0
   13.1410   11.7498   38.0672 C   0  0  0  0  0  0
   13.0281   10.6211   38.5509 O   0  0  0  0  0  0
   12.2954   12.7376   38.3909 N   0  0  0  0  0  0
   11.2230   12.6989   39.3900 C   0  0  1  0  0  0
   11.7616   13.2702   40.7377 C   0  0  0  0  0  0
    9.9233   13.4046   38.9210 C   0  0  0  0  0  0
   10.0424   13.9965   37.6964 O   0  0  0  0  0  0
    8.9157   13.4308   39.5910 O   0  0  0  0  0  0
   13.0595   12.5910   41.2467 C   0  0  0  0  0  0
   13.4824   12.9855   42.6589 C   0  0  0  0  0  0
   14.3377   12.0671   43.1910 O   0  0  0  0  0  0
   13.0800   13.9829   43.2528 O   0  0  0  0  0  0
   13.4760   17.7795   28.9778 C   0  0  0  0  0  0
   19.0120   11.9707   34.9440 C   0  0  0  0  0  0
   13.7923   14.6278   36.9116 C   0  0  0  0  0  0
   18.9066   10.6033   34.4300 C   0  0  0  0  0  0
   18.8705    9.4279   34.1208 C   0  0  0  0  0  0
   13.5794   18.6445   31.4269 H   0  0  0  0  0  0
   16.7002   14.1580   29.8871 H   0  0  0  0  0  0
   18.0445   13.2710   31.7741 H   0  0  0  0  0  0
   16.4326   16.3206   34.3416 H   0  0  0  0  0  0
   19.1957   14.2919   34.0440 H   0  0  0  0  0  0
   18.0793   14.8736   35.2171 H   0  0  0  0  0  0
   16.9217   10.4127   35.8697 H   0  0  0  0  0  0
   15.0002   10.0402   37.1452 H   0  0  0  0  0  0
   15.9721   14.5870   35.5800 H   0  0  0  0  0  0
   12.3694   13.6049   37.8832 H   0  0  0  0  0  0
   10.9353   11.6572   39.5468 H   0  0  0  0  0  0
   11.9590   14.3376   40.6246 H   0  0  0  0  0  0
   10.9919   13.1915   41.5041 H   0  0  0  0  0  0
    9.2229   14.4468   37.4759 H   0  0  0  0  0  0
   12.9287   11.5078   41.2227 H   0  0  0  0  0  0
   13.8968   12.8211   40.5875 H   0  0  0  0  0  0
   14.5924   12.2280   44.1117 H   0  0  0  0  0  0
   13.5430   17.1481   28.0910 H   0  0  0  0  0  0
   12.4210   17.8837   29.2341 H   0  0  0  0  0  0
   13.8572   18.7656   28.7059 H   0  0  0  0  0  0
   19.8614   12.3997   34.4219 H   0  0  0  0  0  0
   19.2925   11.8896   35.9916 H   0  0  0  0  0  0
   13.7932   14.8562   37.9790 H   0  0  0  0  0  0
   14.1928   15.4989   36.3911 H   0  0  0  0  0  0
   12.7694   14.5045   36.5546 H   0  0  0  0  0  0
   18.9721    8.3787   33.9837 H   0  0  0  0  0  0
  1  2  1  0  0  0
  1  4  1  0  0  0
  1 37  1  0  0  0
  2 32  1  0  0  0
  2  3  2  0  0  0
  3  7  1  0  0  0
  4  6  1  0  0  0
  4  5  2  0  0  0
  6 11  1  0  0  0
  6  7  2  0  0  0
  7  8  1  0  0  0
  8  9  2  0  0  0
  8 38  1  0  0  0
  9 10  1  0  0  0
  9 39  1  0  0  0
 10 11  2  0  0  0
 10 12  1  0  0  0
 11 40  1  0  0  0
 12 13  1  0  0  0
 12 41  1  0  0  0
 12 42  1  0  0  0
 13 14  1  0  0  0
 13 33  1  0  0  0
 14 19  1  0  0  0
 14 15  2  0  0  0
 15 16  1  0  0  0
 15 43  1  0  0  0
 16 17  2  0  0  0
 16 44  1  0  0  0
 17 18  1  0  0  0
 17 20  1  0  0  0
 18 19  2  0  0  0
 18 34  1  0  0  0
 19 45  1  0  0  0
 20 21  2  0  0  0
 20 22  1  0  0  0
 22 23  1  0  0  0
 22 46  1  0  0  0
 23 24  1  0  0  0
 23 25  1  0  0  0
 23 47  1  0  0  0
 24 28  1  0  0  0
 24 48  1  0  0  0
 24 49  1  0  0  0
 25 26  1  0  0  0
 25 27  2  0  0  0
 26 50  1  0  0  0
 28 29  1  0  0  0
 28 51  1  0  0  0
 28 52  1  0  0  0
 29 30  1  0  0  0
 29 31  2  0  0  0
 30 53  1  0  0  0
 32 54  1  0  0  0
 32 55  1  0  0  0
 32 56  1  0  0  0
 33 35  1  0  0  0
 33 57  1  0  0  0
 33 58  1  0  0  0
 34 59  1  0  0  0
 34 60  1  0  0  0
 34 61  1  0  0  0
 35 36  3  0  0  0
 36 62  1  0  0  0
M  END
> <s_m_entry_id>
41262

> <s_m_entry_name>
dock_pv.379

> <s_m_Source_Path>
/home/csk/Desktop/cluster/DUD-E-result/tysy

> <s_m_Source_File>
dock_pv.maegz

> <i_m_Source_File_Index>
379

> <chembl_id>
CHEMBL323294

> <chembl_pref_name>
None

> <i_lp_mmshare_version>
53161

> <r_lp_tautomer_probability>
0.883938

> <s_lp_Force_Field>
OPLS_2005

> <r_lp_Energy>
25.899863

> <b_lp_Chiralities_Consistent>
1

> <s_lp_Variant>
CHEMBL1952_lig232-1

> <s_i_glide_gridfile>
glide-grid_1syn

> <i_i_glide_lignum>
460

> <i_i_glide_rotatable_bonds>
14

> <r_i_docking_score>
-7.43552247579229

> <r_i_glide_ligand_efficiency>
-0.20654229099423

> <r_i_glide_ligand_efficiency_sa>
-0.681987617868334

> <r_i_glide_ligand_efficiency_ln>
-1.62223011961566

> <r_i_glide_gscore>
-7.43552247579229

> <r_i_glide_lipo>
-3.52527069207631

> <r_i_glide_hbond>
0

> <r_i_glide_metal>
0

> <r_i_glide_rewards>
-0.736006708956594

> <r_i_glide_evdw>
-57.7081298828125

> <r_i_glide_ecoul>
-8.67476558685303

> <r_i_glide_erotb>
1.01502259295983

> <r_i_glide_esite>
-0.00264633555064562

> <r_i_glide_emodel>
-92.1557430541259

> <r_i_glide_energy>
-66.3828954696655

> <r_i_glide_einternal>
9.02751159667969

> <i_i_glide_confnum>
17

> <i_i_glide_posenum>
136

> <r_i_glide_eff_state_penalty>
0

> <s_user_duplicate_titles>
CHEMBL1952_lig232,171567

> <i_f3d_flags>
0

> <s_m_subgroup_title>
dock_pv

> <s_m_subgroupid>
dock_pv

> <b_m_subgroup_collapsed>
1

$$$$
CHEMBL1952_lig102
                    3D
 Schrodinger Suite 2021-1.
 52 54  0  0  1  0            999 V2000
   13.4190   18.2235   30.9046 N   0  0  0  0  0  0
   15.6568   15.7888   32.5023 C   0  0  1  0  0  0
   14.9947   17.1450   32.4964 C   0  0  1  0  0  0
   14.1026   16.9779   31.2674 C   0  0  2  0  0  0
   14.1242   17.6877   33.6494 C   0  0  0  0  0  0
   13.2651   18.6285   33.1899 N   0  0  0  0  0  0
   12.9933   18.9433   31.8851 C   0  0  0  0  0  0
   14.9619   16.3192   30.3136 N   0  0  0  0  0  0
   15.7907   15.5910   30.9796 C   0  0  0  0  0  0
   15.7881   10.9386   36.7905 C   0  0  0  0  0  0
   14.7543   11.1043   37.6337 N   0  0  0  0  0  0
   17.2366   15.7414   33.4257 S   0  0  0  0  0  0
   13.3460    8.9625   37.7257 C   0  0  0  0  0  0
   14.1072   10.0867   38.4725 C   0  0  2  0  0  0
   14.2282   17.3729   34.8275 O   0  0  0  0  0  0
   16.2655   12.1886   36.0803 C   0  0  0  0  0  0
   11.3791   12.5197   40.0269 C   0  0  0  0  0  0
   16.3103    9.8407   36.5986 O   0  0  0  0  0  0
   13.0587    7.9106   38.2560 O   0  0  0  0  0  0
   12.1920   20.0717   31.6475 N   0  0  0  0  0  0
   11.7737   12.6270   41.1875 O   0  0  0  0  0  0
   13.2256   10.8076   39.5262 C   0  0  0  0  0  0
   16.9928   14.4160   34.5623 C   0  0  0  0  0  0
   17.3391   12.1158   35.1806 C   0  0  0  0  0  0
   15.6395   13.4310   36.2846 C   0  0  0  0  0  0
   12.0578   11.6559   38.9605 C   0  0  0  0  0  0
   13.0304    9.3255   36.4484 O   0  0  0  0  0  0
   10.2767   13.1639   39.5510 O   0  0  0  0  0  0
   16.0094   14.5382   35.5364 C   0  0  0  0  0  0
   17.6980   13.2232   34.4126 C   0  0  0  0  0  0
   16.7622   14.6101   30.3579 C   0  0  0  0  0  0
   15.7500   17.9206   32.3449 H   0  0  0  0  0  0
   13.2838   16.2670   31.4524 H   0  0  0  0  0  0
   12.8264   19.1906   33.9106 H   0  0  0  0  0  0
   16.6331   14.5612   29.2764 H   0  0  0  0  0  0
   14.4258   12.0452   37.7800 H   0  0  0  0  0  0
   14.9150    9.5804   39.0064 H   0  0  0  0  0  0
   12.0193   20.2883   30.6760 H   0  0  0  0  0  0
   12.4398   20.9135   32.1512 H   0  0  0  0  0  0
   13.8680   11.4392   40.1412 H   0  0  0  0  0  0
   12.8220   10.0679   40.2216 H   0  0  0  0  0  0
   17.8636   11.1850   35.0143 H   0  0  0  0  0  0
   14.8364   13.5661   36.9932 H   0  0  0  0  0  0
   12.4132   12.3228   38.1759 H   0  0  0  0  0  0
   11.3120   11.0028   38.5059 H   0  0  0  0  0  0
   13.4044   10.1810   36.2293 H   0  0  0  0  0  0
   10.0959   12.9854   38.6251 H   0  0  0  0  0  0
   15.4884   15.4710   35.6808 H   0  0  0  0  0  0
   18.4731   13.1324   33.6629 H   0  0  0  0  0  0
   16.6070   13.6068   30.7537 H   0  0  0  0  0  0
   14.9927   15.0281   32.9151 H   0  0  0  0  0  0
   17.7936   14.8957   30.5627 H   0  0  0  0  0  0
  1  4  1  0  0  0
  1  7  2  0  0  0
  2  3  1  0  0  0
  2 12  1  0  0  0
  2 51  1  0  0  0
  2  9  1  0  0  0
  3  4  1  0  0  0
  3  5  1  0  0  0
  3 32  1  0  0  0
  4 33  1  0  0  0
  4  8  1  0  0  0
  5  6  1  0  0  0
  5 15  2  0  0  0
  6  7  1  0  0  0
  6 34  1  0  0  0
  7 20  1  0  0  0
  8  9  2  0  0  0
  9 31  1  0  0  0
 10 16  1  0  0  0
 10 11  1  0  0  0
 10 18  2  0  0  0
 11 14  1  0  0  0
 11 36  1  0  0  0
 12 23  1  0  0  0
 13 14  1  0  0  0
 13 19  2  0  0  0
 13 27  1  0  0  0
 14 22  1  0  0  0
 14 37  1  0  0  0
 16 24  1  0  0  0
 16 25  2  0  0  0
 17 26  1  0  0  0
 17 21  2  0  0  0
 17 28  1  0  0  0
 20 38  1  0  0  0
 20 39  1  0  0  0
 22 26  1  0  0  0
 22 40  1  0  0  0
 22 41  1  0  0  0
 23 29  2  0  0  0
 23 30  1  0  0  0
 24 30  2  0  0  0
 24 42  1  0  0  0
 25 29  1  0  0  0
 25 43  1  0  0  0
 26 44  1  0  0  0
 26 45  1  0  0  0
 27 46  1  0  0  0
 28 47  1  0  0  0
 29 48  1  0  0  0
 30 49  1  0  0  0
 31 50  1  0  0  0
 31 52  1  0  0  0
 31 35  1  0  0  0
M  END
> <s_m_entry_id>
41263

> <s_m_entry_name>
dock_pv.380

> <s_m_Source_Path>
/home/csk/Desktop/cluster/DUD-E-result/tysy

> <s_m_Source_File>
dock_pv.maegz

> <i_m_Source_File_Index>
380

> <chembl_id>
CHEMBL336487

> <chembl_pref_name>
None

> <i_lp_mmshare_version>
53161

> <r_lp_tautomer_probability>
0.384609230769231

> <s_lp_Force_Field>
OPLS_2005

> <r_lp_Energy>
41.407567

> <b_lp_Chiralities_Consistent>
1

> <s_lp_Variant>
CHEMBL1952_lig102-24

> <s_i_glide_gridfile>
glide-grid_1syn

> <i_i_glide_lignum>
213

> <i_i_glide_rotatable_bonds>
11

> <r_i_docking_score>
-7.43544198246638

> <r_i_glide_ligand_efficiency>
-0.239852967176335

> <r_i_glide_ligand_efficiency_sa>
-0.753469469643938

> <r_i_glide_ligand_efficiency_ln>
-1.67692003597691

> <r_i_glide_gscore>
-7.43544198246638

> <r_i_glide_lipo>
-2.58896200658901

> <r_i_glide_hbond>
-0.270027225137068

> <r_i_glide_metal>
0

> <r_i_glide_rewards>
-1.65495939304742

> <r_i_glide_evdw>
-53.4963798522949

> <r_i_glide_ecoul>
-7.3871693611145

> <r_i_glide_erotb>
0.900101540785158

> <r_i_glide_esite>
-0.0387005016961273

> <r_i_glide_emodel>
-84.0180795687401

> <r_i_glide_energy>
-60.8835492134094

> <r_i_glide_einternal>
6.10931539535522

> <i_i_glide_confnum>
23

> <i_i_glide_posenum>
29

> <r_i_glide_eff_state_penalty>
0

> <s_user_duplicate_titles>
CHEMBL1952_lig102

> <i_f3d_flags>
0

> <s_m_subgroup_title>
dock_pv

> <s_m_subgroupid>
dock_pv

> <b_m_subgroup_collapsed>
1

$$$$
CHEMBL1952_lig342
                    3D
 Schrodinger Suite 2021-1.
 58 60  0  0  1  0            999 V2000
   14.1747   17.5604   31.8607 N   0  0  0  0  0  0
   15.2030   16.7002   32.0466 C   0  0  0  0  0  0
   13.9157   16.7167   29.6216 N   0  0  0  0  0  0
   15.6728   15.8281   31.0461 C   0  0  0  0  0  0
   14.9486   15.8704   29.8452 C   0  0  0  0  0  0
   13.5947   17.5405   30.6425 C   0  0  0  0  0  0
   16.7967   11.0414   35.9279 C   0  0  0  0  0  0
   15.6829   10.3830   36.5635 C   0  0  0  0  0  0
   16.8148   12.7526   35.5909 S   0  0  0  0  0  0
   14.4746   10.9209   36.3062 N   0  0  0  0  0  0
   15.7137   16.6662   33.3491 N   0  0  0  0  0  0
   13.1237   10.4208   36.6687 C   0  0  2  0  0  0
   18.0195   10.4734   35.5903 C   0  0  0  0  0  0
   12.7790    9.2549   35.6665 C   0  0  0  0  0  0
   18.4241   12.6805   34.9169 C   0  0  0  0  0  0
   18.9109   11.3832   35.0313 C   0  0  0  0  0  0
   16.9210   14.9723   31.2570 C   0  0  0  0  0  0
   12.8073   13.2759   38.4259 C   0  0  0  0  0  0
   15.8523    9.3986   37.2788 O   0  0  0  0  0  0
   13.5886    8.6279   35.0076 O   0  0  0  0  0  0
   12.1064   11.6167   36.5244 C   0  0  0  0  0  0
   12.1527   12.7163   39.3045 O   0  0  0  0  0  0
   15.2708   15.0277   28.7909 N   0  0  0  0  0  0
   12.5772   18.4516   30.4243 N   0  0  0  0  0  0
   17.0309   16.0816   33.5839 C   0  0  0  0  0  0
   12.5771   13.0486   36.9260 C   0  0  0  0  0  0
   19.1355   13.8983   34.3602 C   0  0  0  0  0  0
   11.4387    9.0278   35.5911 O   0  0  0  0  0  0
   17.2665   14.8015   32.7486 C   0  0  2  0  0  0
   13.7919   14.1904   38.6594 O   0  0  0  0  0  0
   18.7122   14.2747   32.9237 C   0  0  0  0  0  0
   13.0551    9.8676   38.1238 C   0  0  0  0  0  0
   14.4751   11.6068   35.5677 H   0  0  0  0  0  0
   15.4314   17.4021   33.9787 H   0  0  0  0  0  0
   18.2714    9.4303   35.7203 H   0  0  0  0  0  0
   19.9013   11.0945   34.7152 H   0  0  0  0  0  0
   17.7602   15.4280   30.7339 H   0  0  0  0  0  0
   16.7985   13.9899   30.7989 H   0  0  0  0  0  0
   11.1797   11.3886   37.0532 H   0  0  0  0  0  0
   11.7895   11.6917   35.4847 H   0  0  0  0  0  0
   16.0139   14.3530   28.8970 H   0  0  0  0  0  0
   14.7156   15.0788   27.9500 H   0  0  0  0  0  0
   12.0975   18.4675   29.5361 H   0  0  0  0  0  0
   12.3315   19.0888   31.1647 H   0  0  0  0  0  0
   17.0996   15.8280   34.6423 H   0  0  0  0  0  0
   17.8160   16.8184   33.4199 H   0  0  0  0  0  0
   11.8038   13.7639   36.6358 H   0  0  0  0  0  0
   13.4601   13.3309   36.3513 H   0  0  0  0  0  0
   19.0195   14.7520   35.0253 H   0  0  0  0  0  0
   20.2086   13.7009   34.3458 H   0  0  0  0  0  0
   11.2870    8.3295   34.9405 H   0  0  0  0  0  0
   16.5922   14.0456   33.1333 H   0  0  0  0  0  0
   14.2095   14.5158   37.8589 H   0  0  0  0  0  0
   19.4078   15.0253   32.5469 H   0  0  0  0  0  0
   18.8632   13.4140   32.2761 H   0  0  0  0  0  0
   12.0267    9.7089   38.4454 H   0  0  0  0  0  0
   13.5606    8.9050   38.2298 H   0  0  0  0  0  0
   13.5178   10.5528   38.8334 H   0  0  0  0  0  0
  1  2  2  0  0  0
  1  6  1  0  0  0
  2  4  1  0  0  0
  2 11  1  0  0  0
  3  6  2  0  0  0
  3  5  1  0  0  0
  4 17  1  0  0  0
  4  5  2  0  0  0
  5 23  1  0  0  0
  6 24  1  0  0  0
  7  9  1  0  0  0
  7  8  1  0  0  0
  7 13  2  0  0  0
  8 10  1  0  0  0
  8 19  2  0  0  0
  9 15  1  0  0  0
 10 12  1  0  0  0
 10 33  1  0  0  0
 11 25  1  0  0  0
 11 34  1  0  0  0
 12 14  1  0  0  0
 12 21  1  0  0  0
 12 32  1  0  0  0
 13 16  1  0  0  0
 13 35  1  0  0  0
 14 20  2  0  0  0
 14 28  1  0  0  0
 15 27  1  0  0  0
 15 16  2  0  0  0
 16 36  1  0  0  0
 17 29  1  0  0  0
 17 37  1  0  0  0
 17 38  1  0  0  0
 18 26  1  0  0  0
 18 22  2  0  0  0
 18 30  1  0  0  0
 21 26  1  0  0  0
 21 39  1  0  0  0
 21 40  1  0  0  0
 23 41  1  0  0  0
 23 42  1  0  0  0
 24 43  1  0  0  0
 24 44  1  0  0  0
 25 29  1  0  0  0
 25 45  1  0  0  0
 25 46  1  0  0  0
 26 47  1  0  0  0
 26 48  1  0  0  0
 27 31  1  0  0  0
 27 49  1  0  0  0
 27 50  1  0  0  0
 28 51  1  0  0  0
 29 31  1  0  0  0
 29 52  1  0  0  0
 30 53  1  0  0  0
 31 54  1  0  0  0
 31 55  1  0  0  0
 32 56  1  0  0  0
 32 57  1  0  0  0
 32 58  1  0  0  0
M  END
> <s_m_entry_id>
41264

> <s_m_entry_name>
dock_pv.381

> <s_m_Source_Path>
/home/csk/Desktop/cluster/DUD-E-result/tysy

> <s_m_Source_File>
dock_pv.maegz

> <i_m_Source_File_Index>
381

> <chembl_id>
CHEMBL168069

> <chembl_pref_name>
None

> <i_lp_mmshare_version>
53161

> <r_lp_tautomer_probability>
1

> <s_lp_Force_Field>
OPLS_2005

> <r_lp_Energy>
8.122927

> <b_lp_Chiralities_Consistent>
1

> <s_lp_Variant>
CHEMBL1952_lig342-2

> <s_i_glide_gridfile>
glide-grid_1syn

> <i_i_glide_lignum>
624

> <i_i_glide_rotatable_bonds>
12

> <r_i_docking_score>
-7.42351120346498

> <r_i_glide_ligand_efficiency>
-0.231984725108281

> <r_i_glide_ligand_efficiency_sa>
-0.736505592504032

> <r_i_glide_ligand_efficiency_ln>
-1.66232651572855

> <r_i_glide_gscore>
-7.42351120346498

> <r_i_glide_lipo>
-2.5959819428345

> <r_i_glide_hbond>
-0.300886142027168

> <r_i_glide_metal>
0

> <r_i_glide_rewards>
-0.938885407424466

> <r_i_glide_evdw>
-50.6725616455078

> <r_i_glide_ecoul>
-13.3052244186401

> <r_i_glide_erotb>
0.941654033892561

> <r_i_glide_esite>
0

> <r_i_glide_emodel>
-88.685493936528

> <r_i_glide_energy>
-63.9777860641479

> <r_i_glide_einternal>
8.46235084533691

> <i_i_glide_confnum>
35

> <i_i_glide_posenum>
60

> <r_i_glide_eff_state_penalty>
0

> <s_user_duplicate_titles>
CHEMBL1952_lig342

> <i_f3d_flags>
0

> <s_m_subgroup_title>
dock_pv

> <s_m_subgroupid>
dock_pv

> <b_m_subgroup_collapsed>
1

$$$$
CHEMBL1952_lig326 
                    3D
 Schrodinger Suite 2021-1.
 51 54  0  0  1  0            999 V2000
   14.9919    6.8279   38.5408 N   0  0  0  0  0  0
   14.4919    6.0193   37.5385 C   0  0  0  0  0  0
   13.8048    6.5222   36.5690 N   0  0  0  0  0  0
   14.8604    8.1870   38.6786 C   0  0  0  0  0  0
   14.0518    8.7393   37.5888 C   0  0  0  0  0  0
   13.5882    7.8651   36.6081 C   0  0  0  0  0  0
   12.8507    8.5714   35.7026 N   0  0  0  0  0  0
   12.8648    9.8879   36.0874 C   0  0  0  0  0  0
   13.5971   10.0373   37.2717 C   0  0  0  0  0  0
   15.3921    8.7716   39.6191 O   0  0  0  0  0  0
   14.7431    4.6338   37.5911 N   0  0  0  0  0  0
   13.8239   11.3136   38.0613 C   0  0  0  0  0  0
   14.0983   12.5328   37.1912 C   0  0  0  0  0  0
   15.4008   12.8331   36.7912 C   0  0  0  0  0  0
   15.6525   13.9573   36.0129 C   0  0  0  0  0  0
   14.5925   14.7772   35.5970 C   0  0  0  0  0  0
   13.2888   14.4592   35.9910 C   0  0  0  0  0  0
   13.0417   13.3510   36.7913 C   0  0  0  0  0  0
   14.8123   15.9498   34.6720 C   0  0  0  0  0  0
   14.0639   16.9277   34.7059 O   0  0  0  0  0  0
   15.7875   15.7527   33.7634 N   0  0  0  0  0  0
   15.7284   15.9527   32.3694 C   0  0  0  0  0  0
   14.7925   16.8257   31.7795 C   0  0  0  0  0  0
   14.6212   16.8931   30.3864 C   0  0  0  0  0  0
   15.4242   16.0700   29.5905 C   0  0  0  0  0  0
   16.3904   15.2401   30.1533 C   0  0  0  0  0  0
   16.5814   15.1733   31.5444 C   0  0  0  0  0  0
   17.6476   14.2280   32.0934 C   0  0  0  0  0  0
   18.5905   13.8479   31.1909 O   0  0  0  0  0  0
   17.6645   13.8361   33.2603 O   0  0  0  0  0  0
   13.6196   17.8245   29.7346 C   0  0  0  0  0  0
   12.6235   18.2950   30.4891 N   0  0  0  0  0  0
   13.6974   18.1140   28.5422 O   0  0  0  0  0  0
   15.5110    6.3911   39.2844 H   0  0  0  0  0  0
   12.3606    8.1737   34.9108 H   0  0  0  0  0  0
   12.3315   10.6225   35.4992 H   0  0  0  0  0  0
   14.5017    4.1030   36.7583 H   0  0  0  0  0  0
   15.6066    4.3123   38.0002 H   0  0  0  0  0  0
   14.6489   11.2008   38.7620 H   0  0  0  0  0  0
   12.9534   11.5160   38.6867 H   0  0  0  0  0  0
   16.2242   12.2078   37.1060 H   0  0  0  0  0  0
   16.6744   14.1697   35.7368 H   0  0  0  0  0  0
   12.4498   15.0572   35.6647 H   0  0  0  0  0  0
   12.0281   13.1255   37.0894 H   0  0  0  0  0  0
   16.4369   15.0095   33.9896 H   0  0  0  0  0  0
   14.1818   17.4579   32.4049 H   0  0  0  0  0  0
   15.3158   16.0751   28.5145 H   0  0  0  0  0  0
   16.9836   14.6351   29.4831 H   0  0  0  0  0  0
   19.2146   13.1784   31.5092 H   0  0  0  0  0  0
   11.9290   18.8928   30.0636 H   0  0  0  0  0  0
   12.5801   18.0960   31.4778 H   0  0  0  0  0  0
  1  2  1  0  0  0
  1  4  1  0  0  0
  1 34  1  0  0  0
  2  3  2  0  0  0
  2 11  1  0  0  0
  3  6  1  0  0  0
  4  5  1  0  0  0
  4 10  2  0  0  0
  5  6  2  0  0  0
  5  9  1  0  0  0
  6  7  1  0  0  0
  7  8  1  0  0  0
  7 35  1  0  0  0
  8  9  2  0  0  0
  8 36  1  0  0  0
  9 12  1  0  0  0
 11 37  1  0  0  0
 11 38  1  0  0  0
 12 13  1  0  0  0
 12 39  1  0  0  0
 12 40  1  0  0  0
 13 14  2  0  0  0
 13 18  1  0  0  0
 14 15  1  0  0  0
 14 41  1  0  0  0
 15 16  2  0  0  0
 15 42  1  0  0  0
 16 17  1  0  0  0
 16 19  1  0  0  0
 17 18  2  0  0  0
 17 43  1  0  0  0
 18 44  1  0  0  0
 19 20  2  0  0  0
 19 21  1  0  0  0
 21 22  1  0  0  0
 21 45  1  0  0  0
 22 23  2  0  0  0
 22 27  1  0  0  0
 23 24  1  0  0  0
 23 46  1  0  0  0
 24 25  2  0  0  0
 24 31  1  0  0  0
 25 26  1  0  0  0
 25 47  1  0  0  0
 26 27  2  0  0  0
 26 48  1  0  0  0
 27 28  1  0  0  0
 28 29  1  0  0  0
 28 30  2  0  0  0
 29 49  1  0  0  0
 31 32  1  0  0  0
 31 33  2  0  0  0
 32 50  1  0  0  0
 32 51  1  0  0  0
M  END
> <s_m_entry_id>
41265

> <s_m_entry_name>
dock_pv.382

> <s_m_Source_Path>
/home/csk/Desktop/cluster/DUD-E-result/tysy

> <s_m_Source_File>
dock_pv.maegz

> <i_m_Source_File_Index>
382

> <chembl_id>
CHEMBL4454174

> <chembl_pref_name>
None

> <i_lp_mmshare_version>
53161

> <r_lp_tautomer_probability>
1

> <s_lp_Force_Field>
OPLS_2005

> <r_lp_Energy>
34.492066

> <b_lp_Chiralities_Consistent>
1

> <s_lp_Variant>
CHEMBL1952_lig326 -1

> <s_i_glide_gridfile>
glide-grid_1syn

> <i_i_glide_lignum>
601

> <i_i_glide_rotatable_bonds>
8

> <r_i_docking_score>
-7.41695513076871

> <r_i_glide_ligand_efficiency>
-0.2247562160839

> <r_i_glide_ligand_efficiency_sa>
-0.720913278128844

> <r_i_glide_ligand_efficiency_ln>
-1.64949241814458

> <r_i_glide_gscore>
-7.41695513076871

> <r_i_glide_lipo>
-3.03041857683663

> <r_i_glide_hbond>
-0.503489442351421

> <r_i_glide_metal>
0

> <r_i_glide_rewards>
-0.228386558634729

> <r_i_glide_evdw>
-51.9441795349121

> <r_i_glide_ecoul>
-10.6502647399902

> <r_i_glide_erotb>
0.602635933269426

> <r_i_glide_esite>
-0.0625477984712137

> <r_i_glide_emodel>
-80.6965036231962

> <r_i_glide_energy>
-62.5944442749023

> <r_i_glide_einternal>
12.5556221008301

> <i_i_glide_confnum>
8

> <i_i_glide_posenum>
228

> <r_i_glide_eff_state_penalty>
0

> <s_user_duplicate_titles>
CHEMBL1952_lig326 

> <i_f3d_flags>
0

> <s_m_subgroup_title>
dock_pv

> <s_m_subgroupid>
dock_pv

> <b_m_subgroup_collapsed>
1

$$$$
CHEMBL1952_lig467
                    3D
 Schrodinger Suite 2021-1.
 33 36  0  0  1  0            999 V2000
   17.7887   15.0280   35.3764 O   0  0  0  0  0  0
   18.4736   14.1701   34.4152 S   0  0  0  0  0  0
   19.9355   14.1676   34.3165 O   0  0  0  0  0  0
   15.4154   15.9764   30.4415 C   0  0  0  0  0  0
   16.4152   15.1299   30.9863 C   0  0  0  0  0  0
   13.0254   18.7102   31.7349 C   0  0  0  0  0  0
   14.2695   17.8114   33.5921 C   0  0  0  0  0  0
   13.7431   17.7811   30.8073 C   0  0  0  0  0  0
   14.4756   17.9185   34.7912 O   0  0  0  0  0  0
   15.1123   16.0235   29.0647 C   0  0  0  0  0  0
   12.1920   19.5527   31.4063 O   0  0  0  0  0  0
   14.7169   16.8567   31.3065 C   0  0  0  0  0  0
   13.3356   18.6274   33.0487 O   0  0  0  0  0  0
   16.7287   15.1689   32.3482 C   0  0  0  0  0  0
   13.5079   17.8125   29.4340 C   0  0  0  0  0  0
   15.9903   16.0136   33.1877 C   0  0  0  0  0  0
   14.1914   16.9536   28.5843 C   0  0  0  0  0  0
   14.9941   16.8647   32.6973 C   0  0  0  0  0  0
   17.8461   14.4149   32.7589 N   0  0  0  0  0  0
   17.9682   12.5038   34.8502 C   0  0  0  0  0  0
   16.4392   12.1407   35.5912 S   0  0  0  0  0  0
   16.8607   10.4597   35.6606 C   0  0  0  0  0  0
   18.1467   10.2277   35.1911 C   0  0  0  0  0  0
   18.7806   11.3888   34.7638 C   0  0  0  0  0  0
   16.9702   14.4891   30.3143 H   0  0  0  0  0  0
   15.6282   15.3638   28.3809 H   0  0  0  0  0  0
   12.7935   18.5094   29.0128 H   0  0  0  0  0  0
   16.1920   16.0718   34.2413 H   0  0  0  0  0  0
   13.9841   17.0068   27.5259 H   0  0  0  0  0  0
   18.4331   14.0258   32.0351 H   0  0  0  0  0  0
   16.1566    9.7410   36.0502 H   0  0  0  0  0  0
   18.6305    9.2662   35.1603 H   0  0  0  0  0  0
   19.7916   11.4134   34.3914 H   0  0  0  0  0  0
  1  2  2  0  0  0
  2  3  2  0  0  0
  2 19  1  0  0  0
  2 20  1  0  0  0
  4 10  2  0  0  0
  4 12  1  0  0  0
  4  5  1  0  0  0
  5 14  2  0  0  0
  5 25  1  0  0  0
  6  8  1  0  0  0
  6 11  2  0  0  0
  6 13  1  0  0  0
  7 18  1  0  0  0
  7 13  1  0  0  0
  7  9  2  0  0  0
  8 15  1  0  0  0
  8 12  2  0  0  0
 10 17  1  0  0  0
 10 26  1  0  0  0
 12 18  1  0  0  0
 14 16  1  0  0  0
 14 19  1  0  0  0
 15 17  2  0  0  0
 15 27  1  0  0  0
 16 18  2  0  0  0
 16 28  1  0  0  0
 17 29  1  0  0  0
 19 30  1  0  0  0
 20 21  1  0  0  0
 20 24  2  0  0  0
 21 22  1  0  0  0
 22 23  2  0  0  0
 22 31  1  0  0  0
 23 24  1  0  0  0
 23 32  1  0  0  0
 24 33  1  0  0  0
M  END
> <s_m_entry_id>
41266

> <s_m_entry_name>
dock_pv.383

> <s_m_Source_Path>
/home/csk/Desktop/cluster/DUD-E-result/tysy

> <s_m_Source_File>
dock_pv.maegz

> <i_m_Source_File_Index>
383

> <chembl_id>
CHEMBL2323391

> <chembl_pref_name>
None

> <i_lp_mmshare_version>
53161

> <r_lp_tautomer_probability>
1

> <s_lp_Force_Field>
OPLS_2005

> <r_lp_Energy>
31.737833

> <b_lp_Chiralities_Consistent>
1

> <s_lp_Variant>
CHEMBL1952_lig467-1

> <s_i_glide_gridfile>
glide-grid_1syn

> <i_i_glide_lignum>
897

> <i_i_glide_rotatable_bonds>
3

> <r_i_docking_score>
-7.41596480630148

> <r_i_glide_ligand_efficiency>
-0.308998533595895

> <r_i_glide_ligand_efficiency_sa>
-0.891306003664392

> <r_i_glide_ligand_efficiency_ln>
-1.77498067459889

> <r_i_glide_gscore>
-7.41596480630148

> <r_i_glide_lipo>
-3.30934881363316

> <r_i_glide_hbond>
0

> <r_i_glide_metal>
0

> <r_i_glide_rewards>
-1.94816713711226

> <r_i_glide_evdw>
-48.5321426391602

> <r_i_glide_ecoul>
-0.67227703332901

> <r_i_glide_erotb>
0.445209972361289

> <r_i_glide_esite>
-0.0762101409599951

> <r_i_glide_emodel>
-69.0603846281115

> <r_i_glide_energy>
-49.2044196724892

> <r_i_glide_einternal>
5.4168643951416

> <i_i_glide_confnum>
9

> <i_i_glide_posenum>
323

> <r_i_glide_eff_state_penalty>
0

> <s_user_duplicate_titles>
CHEMBL1952_lig467

> <i_f3d_flags>
0

> <s_m_subgroup_title>
dock_pv

> <s_m_subgroupid>
dock_pv

> <b_m_subgroup_collapsed>
1

$$$$
CHEMBL1952_lig408
                    3D
 Schrodinger Suite 2021-1.
 43 45  0  0  1  0            999 V2000
   14.7190   16.4429   30.4732 C   0  0  0  0  0  0
   14.6027   16.6241   31.9692 C   0  0  0  0  0  0
   13.9171   17.2884   29.7817 N   0  0  0  0  0  0
   12.9920   18.4232   31.5658 N   0  0  0  0  0  0
   13.7412   17.6209   32.4391 C   0  0  0  0  0  0
   13.0860   18.2420   30.3009 C   0  0  0  0  0  0
   14.9294    9.0447   36.1754 C   0  0  0  0  0  0
   15.7669   10.2864   35.8548 C   0  0  0  0  0  0
   15.3015   13.9981   35.7621 N   0  0  0  0  0  0
   13.0240   13.8280   36.7912 C   0  0  0  0  0  0
   15.9442   12.7282   35.6893 C   0  0  0  0  0  0
   11.8459   13.5134   36.7252 C   0  0  0  0  0  0
   15.2201   11.5634   35.9910 C   0  0  0  0  0  0
   15.3268   15.8282   32.8614 C   0  0  0  0  0  0
   15.4493   15.6479   29.8906 O   0  0  0  0  0  0
   15.9794   15.1866   35.2181 C   0  0  0  0  0  0
   15.1491   16.0045   34.2395 C   0  0  0  0  0  0
   13.6021   17.8259   33.8080 C   0  0  0  0  0  0
   13.6402    9.3333   36.3667 F   0  0  0  0  0  0
   15.3920    8.4881   37.2951 F   0  0  0  0  0  0
   14.9950    8.1506   35.1910 F   0  0  0  0  0  0
   14.4387   14.2280   36.9363 C   0  0  0  0  0  0
   14.2965   17.0125   34.7046 C   0  0  0  0  0  0
   12.2526   19.0639   29.3492 C   0  0  0  0  0  0
   17.0814   10.1746   35.3981 C   0  0  0  0  0  0
   17.2881   12.5671   35.2997 C   0  0  0  0  0  0
   17.8532   11.3045   35.1620 C   0  0  0  0  0  0
   10.8164   13.2442   36.6496 H   0  0  0  0  0  0
   14.1911   11.6287   36.2931 H   0  0  0  0  0  0
   16.0014   15.0645   32.4944 H   0  0  0  0  0  0
   13.9763   17.1846   28.7825 H   0  0  0  0  0  0
   16.2020   15.8278   36.0639 H   0  0  0  0  0  0
   16.9345   15.0084   34.7357 H   0  0  0  0  0  0
   12.9591   18.6162   34.1688 H   0  0  0  0  0  0
   14.8566   13.7372   37.8170 H   0  0  0  0  0  0
   14.4298   15.2840   37.1920 H   0  0  0  0  0  0
   14.1918   17.1815   35.7639 H   0  0  0  0  0  0
   12.0593   20.0590   29.7529 H   0  0  0  0  0  0
   12.7398   19.1900   28.3829 H   0  0  0  0  0  0
   11.2831   18.5923   29.1887 H   0  0  0  0  0  0
   17.5124    9.2119   35.1909 H   0  0  0  0  0  0
   17.9470   13.3929   35.0952 H   0  0  0  0  0  0
   18.8766   11.2039   34.8270 H   0  0  0  0  0  0
  1 15  2  0  0  0
  1  2  1  0  0  0
  1  3  1  0  0  0
  2 14  1  0  0  0
  2  5  2  0  0  0
  3  6  1  0  0  0
  3 31  1  0  0  0
  4  5  1  0  0  0
  4  6  2  0  0  0
  5 18  1  0  0  0
  6 24  1  0  0  0
  7  8  1  0  0  0
  7 19  1  0  0  0
  7 20  1  0  0  0
  7 21  1  0  0  0
  8 13  2  0  0  0
  8 25  1  0  0  0
  9 16  1  0  0  0
  9 11  1  0  0  0
  9 22  1  0  0  0
 10 22  1  0  0  0
 10 12  3  0  0  0
 11 13  1  0  0  0
 11 26  2  0  0  0
 12 28  1  0  0  0
 13 29  1  0  0  0
 14 30  1  0  0  0
 14 17  2  0  0  0
 16 32  1  0  0  0
 16 33  1  0  0  0
 16 17  1  0  0  0
 17 23  1  0  0  0
 18 23  2  0  0  0
 18 34  1  0  0  0
 22 35  1  0  0  0
 22 36  1  0  0  0
 23 37  1  0  0  0
 24 38  1  0  0  0
 24 39  1  0  0  0
 24 40  1  0  0  0
 25 27  2  0  0  0
 25 41  1  0  0  0
 26 27  1  0  0  0
 26 42  1  0  0  0
 27 43  1  0  0  0
M  END
> <s_m_entry_id>
41267

> <s_m_entry_name>
dock_pv.384

> <s_m_Source_Path>
/home/csk/Desktop/cluster/DUD-E-result/tysy

> <s_m_Source_File>
dock_pv.maegz

> <i_m_Source_File_Index>
384

> <chembl_id>
CHEMBL301423

> <chembl_pref_name>
None

> <i_lp_mmshare_version>
53161

> <r_lp_tautomer_probability>
0.883938

> <s_lp_Force_Field>
OPLS_2005

> <r_lp_Energy>
21.260739

> <b_lp_Chiralities_Consistent>
1

> <s_lp_Variant>
CHEMBL1952_lig408-1

> <s_i_glide_gridfile>
glide-grid_1syn

> <i_i_glide_lignum>
799

> <i_i_glide_rotatable_bonds>
6

> <r_i_docking_score>
-7.41439536826149

> <r_i_glide_ligand_efficiency>
-0.274607235861537

> <r_i_glide_ligand_efficiency_sa>
-0.823821706679549

> <r_i_glide_ligand_efficiency_ln>
-1.72594900587038

> <r_i_glide_gscore>
-7.41439536826149

> <r_i_glide_lipo>
-3.525560793978

> <r_i_glide_hbond>
0

> <r_i_glide_metal>
0

> <r_i_glide_rewards>
-1.92741271194554

> <r_i_glide_evdw>
-44.9481163024902

> <r_i_glide_ecoul>
-2.69931721687317

> <r_i_glide_erotb>
0.699837368931468

> <r_i_glide_esite>
-0.00895583361392428

> <r_i_glide_emodel>
-66.3599106595832

> <r_i_glide_energy>
-47.6474335193634

> <r_i_glide_einternal>
5.7213077545166

> <i_i_glide_confnum>
73

> <i_i_glide_posenum>
65

> <r_i_glide_eff_state_penalty>
0

> <s_user_duplicate_titles>
CHEMBL1952_lig408,CHEMBL1952_lig408,90634

> <i_f3d_flags>
0

> <s_m_subgroup_title>
dock_pv

> <s_m_subgroupid>
dock_pv

> <b_m_subgroup_collapsed>
1

$$$$
CHEMBL1952_lig35
                    3D
 Schrodinger Suite 2021-1.
 27 29  0  0  1  0            999 V2000
   15.9121   15.9440   33.3963 C   0  0  0  0  0  0
   15.5696   16.1882   32.0046 C   0  0  0  0  0  0
   16.9849   15.2050   33.7646 N   0  0  0  0  0  0
   17.6805   14.5913   32.7948 C   0  0  0  0  0  0
   17.3908   14.6092   31.4854 N   0  0  0  0  0  0
   16.3372   15.3773   31.0995 C   0  0  0  0  0  0
   14.5611   17.0773   31.4525 C   0  0  0  0  0  0
   13.8785   18.1666   32.1445 C   0  0  0  0  0  0
   15.0715   16.3431   34.3906 O   0  0  0  0  0  0
   14.2337   16.9232   30.0566 C   0  0  0  0  0  0
   12.8552   18.8882   31.5067 C   0  0  0  0  0  0
   16.0097   15.3064   29.7411 C   0  0  0  0  0  0
   18.7675   13.8280   33.1877 N   0  0  0  0  0  0
   12.5211   18.6353   30.1892 C   0  0  0  0  0  0
   14.9456   16.0244   29.2409 C   0  0  0  0  0  0
   13.2091   17.6889   29.4592 C   0  0  0  0  0  0
   14.2278   18.6276   33.4126 N   0  0  0  0  0  0
   11.8694   20.2695   32.3907 Br  0  0  0  0  0  0
   15.3919   15.9996   35.2286 H   0  0  0  0  0  0
   16.5789   14.6549   29.0928 H   0  0  0  0  0  0
   19.2773   13.2885   32.4936 H   0  0  0  0  0  0
   18.9832   13.7524   34.1670 H   0  0  0  0  0  0
   11.7386   19.2108   29.7138 H   0  0  0  0  0  0
   14.6853   15.9281   28.1953 H   0  0  0  0  0  0
   12.9708   17.5489   28.4140 H   0  0  0  0  0  0
   13.6281   19.3342   33.8325 H   0  0  0  0  0  0
   14.6266   17.9122   34.0142 H   0  0  0  0  0  0
  1  2  1  0  0  0
  1  3  2  0  0  0
  1  9  1  0  0  0
  2  6  2  0  0  0
  2  7  1  0  0  0
  3  4  1  0  0  0
  4  5  2  0  0  0
  4 13  1  0  0  0
  5  6  1  0  0  0
  6 12  1  0  0  0
  7  8  2  0  0  0
  7 10  1  0  0  0
  8 11  1  0  0  0
  8 17  1  0  0  0
  9 19  1  0  0  0
 10 15  1  0  0  0
 10 16  2  0  0  0
 11 18  1  0  0  0
 11 14  2  0  0  0
 12 15  2  0  0  0
 12 20  1  0  0  0
 13 21  1  0  0  0
 13 22  1  0  0  0
 14 16  1  0  0  0
 14 23  1  0  0  0
 15 24  1  0  0  0
 16 25  1  0  0  0
 17 26  1  0  0  0
 17 27  1  0  0  0
M  END
> <s_m_entry_id>
41270

> <s_m_entry_name>
dock_pv.387

> <s_m_Source_Path>
/home/csk/Desktop/cluster/DUD-E-result/tysy

> <s_m_Source_File>
dock_pv.maegz

> <i_m_Source_File_Index>
387

> <chembl_id>
CHEMBL73440

> <chembl_pref_name>
None

> <i_lp_mmshare_version>
53161

> <r_lp_tautomer_probability>
1

> <s_lp_Force_Field>
OPLS_2005

> <r_lp_Energy>
28.703337

> <b_lp_Chiralities_Consistent>
1

> <s_lp_Variant>
CHEMBL1952_lig35-1

> <s_i_glide_gridfile>
glide-grid_1syn

> <i_i_glide_lignum>
49

> <i_i_glide_rotatable_bonds>
1

> <r_i_docking_score>
-7.40762236282881

> <r_i_glide_ligand_efficiency>
-0.411534575712712

> <r_i_glide_ligand_efficiency_sa>
-1.07852569667939

> <r_i_glide_ligand_efficiency_ln>
-1.90409113159785

> <r_i_glide_gscore>
-7.40762236282881

> <r_i_glide_lipo>
-2.9077322385679

> <r_i_glide_hbond>
-0.200688064508777

> <r_i_glide_metal>
0

> <r_i_glide_rewards>
-1.6756967290311

> <r_i_glide_evdw>
-39.0321006774902

> <r_i_glide_ecoul>
-4.00209474563599

> <r_i_glide_erotb>
0

> <r_i_glide_esite>
-0.0715860850011169

> <r_i_glide_emodel>
-62.1785854186991

> <r_i_glide_energy>
-43.0341954231262

> <r_i_glide_einternal>
0.913997411727905

> <i_i_glide_confnum>
1

> <i_i_glide_posenum>
214

> <r_i_glide_eff_state_penalty>
0

> <s_user_duplicate_titles>
CHEMBL1952_lig35

> <i_f3d_flags>
0

> <s_m_subgroup_title>
dock_pv

> <s_m_subgroupid>
dock_pv

> <b_m_subgroup_collapsed>
1

$$$$
CHEMBL1952_lig340
                    3D
 Schrodinger Suite 2021-1.
 58 60  0  0  1  0            999 V2000
   12.9922   18.8701   31.1575 N   0  0  0  0  0  0
   13.7931   18.0798   31.9092 C   0  0  0  0  0  0
   13.7095   17.6722   29.1953 N   0  0  0  0  0  0
   14.5846   17.0467   31.3716 C   0  0  0  0  0  0
   14.4871   16.8900   29.9787 C   0  0  0  0  0  0
   12.9934   18.6247   29.8303 C   0  0  0  0  0  0
   16.9473   11.5917   35.5924 C   0  0  0  0  0  0
   16.0217   10.6314   36.1242 C   0  0  0  0  0  0
   14.9761   11.1473   36.8108 N   0  0  0  0  0  0
   13.8510   18.4110   33.2695 N   0  0  0  0  0  0
   16.6062   12.9089   35.5356 O   0  0  0  0  0  0
   13.8239   10.4155   37.3999 C   0  0  1  0  0  0
   18.1914   11.4125   35.0001 C   0  0  0  0  0  0
   14.3333    9.3388   38.4306 C   0  0  0  0  0  0
   17.5871   13.5595   34.8521 C   0  0  0  0  0  0
   18.5903   12.6639   34.5356 C   0  0  0  0  0  0
   15.4303   16.1456   32.2681 C   0  0  0  0  0  0
   12.4723   12.7735   40.3259 C   0  0  0  0  0  0
   16.1915    9.4282   35.9373 O   0  0  0  0  0  0
   15.3915    9.4083   39.0236 O   0  0  0  0  0  0
   12.8928   11.4362   38.1319 C   0  0  0  0  0  0
   12.5808   12.6240   41.5416 O   0  0  0  0  0  0
   15.1836   15.8864   29.3146 N   0  0  0  0  0  0
   12.1921   19.4280   29.0443 N   0  0  0  0  0  0
   14.2741   17.3794   34.2123 C   0  0  0  0  0  0
   13.5022   12.2491   39.3159 C   0  0  0  0  0  0
   13.4360    8.3227   38.5962 O   0  0  0  0  0  0
   17.3973   15.0283   34.5468 C   0  0  0  0  0  0
   15.5578   16.6700   33.7229 C   0  0  1  0  0  0
   11.4448   13.4280   39.7184 O   0  0  0  0  0  0
   15.9379   15.5231   34.6898 C   0  0  0  0  0  0
   13.0067    9.7656   36.2420 C   0  0  0  0  0  0
   14.8318   12.1357   36.6699 H   0  0  0  0  0  0
   13.1903   19.0911   33.6286 H   0  0  0  0  0  0
   18.7295   10.4820   34.8828 H   0  0  0  0  0  0
   19.4890   12.8994   33.9896 H   0  0  0  0  0  0
   16.4221   16.0146   31.8333 H   0  0  0  0  0  0
   14.9740   15.1556   32.2659 H   0  0  0  0  0  0
   12.0007   10.9030   38.4705 H   0  0  0  0  0  0
   12.5212   12.1484   37.3922 H   0  0  0  0  0  0
   15.7432   15.2327   29.8396 H   0  0  0  0  0  0
   15.0383   15.7833   28.3215 H   0  0  0  0  0  0
   12.0323   19.1233   28.0976 H   0  0  0  0  0  0
   11.4365   19.8899   29.5342 H   0  0  0  0  0  0
   13.4692   16.6665   34.3977 H   0  0  0  0  0  0
   14.4550   17.8535   35.1780 H   0  0  0  0  0  0
   14.1005   13.0819   38.9442 H   0  0  0  0  0  0
   14.1918   11.6303   39.8875 H   0  0  0  0  0  0
   12.6706    8.4073   38.0268 H   0  0  0  0  0  0
   18.0536   15.6229   35.1827 H   0  0  0  0  0  0
   17.7590   15.2062   33.5343 H   0  0  0  0  0  0
   16.3567   17.4133   33.7592 H   0  0  0  0  0  0
   11.5537   13.4644   38.7665 H   0  0  0  0  0  0
   15.2320   14.7059   34.5311 H   0  0  0  0  0  0
   15.7798   15.8264   35.7265 H   0  0  0  0  0  0
   12.0508    9.3587   36.5742 H   0  0  0  0  0  0
   12.7748   10.4969   35.4661 H   0  0  0  0  0  0
   13.5530    8.9557   35.7556 H   0  0  0  0  0  0
  1  2  2  0  0  0
  1  6  1  0  0  0
  2  4  1  0  0  0
  2 10  1  0  0  0
  3  6  2  0  0  0
  3  5  1  0  0  0
  4 17  1  0  0  0
  4  5  2  0  0  0
  5 23  1  0  0  0
  6 24  1  0  0  0
  7 11  1  0  0  0
  7  8  1  0  0  0
  7 13  2  0  0  0
  8  9  1  0  0  0
  8 19  2  0  0  0
  9 12  1  0  0  0
  9 33  1  0  0  0
 10 25  1  0  0  0
 10 34  1  0  0  0
 11 15  1  0  0  0
 12 14  1  0  0  0
 12 21  1  0  0  0
 12 32  1  0  0  0
 13 16  1  0  0  0
 13 35  1  0  0  0
 14 20  2  0  0  0
 14 27  1  0  0  0
 15 28  1  0  0  0
 15 16  2  0  0  0
 16 36  1  0  0  0
 17 29  1  0  0  0
 17 37  1  0  0  0
 17 38  1  0  0  0
 18 26  1  0  0  0
 18 22  2  0  0  0
 18 30  1  0  0  0
 21 26  1  0  0  0
 21 39  1  0  0  0
 21 40  1  0  0  0
 23 41  1  0  0  0
 23 42  1  0  0  0
 24 43  1  0  0  0
 24 44  1  0  0  0
 25 29  1  0  0  0
 25 45  1  0  0  0
 25 46  1  0  0  0
 26 47  1  0  0  0
 26 48  1  0  0  0
 27 49  1  0  0  0
 28 31  1  0  0  0
 28 50  1  0  0  0
 28 51  1  0  0  0
 29 31  1  0  0  0
 29 52  1  0  0  0
 30 53  1  0  0  0
 31 54  1  0  0  0
 31 55  1  0  0  0
 32 56  1  0  0  0
 32 57  1  0  0  0
 32 58  1  0  0  0
M  END
> <s_m_entry_id>
41272

> <s_m_entry_name>
dock_pv.389

> <s_m_Source_Path>
/home/csk/Desktop/cluster/DUD-E-result/tysy

> <s_m_Source_File>
dock_pv.maegz

> <i_m_Source_File_Index>
389

> <chembl_id>
CHEMBL167304

> <chembl_pref_name>
None

> <i_lp_mmshare_version>
53161

> <r_lp_tautomer_probability>
1

> <s_lp_Force_Field>
OPLS_2005

> <r_lp_Energy>
12.845264

> <b_lp_Chiralities_Consistent>
1

> <s_lp_Variant>
CHEMBL1952_lig340-3

> <s_i_glide_gridfile>
glide-grid_1syn

> <i_i_glide_lignum>
617

> <i_i_glide_rotatable_bonds>
12

> <r_i_docking_score>
-7.40216019111228

> <r_i_glide_ligand_efficiency>
-0.231317505972259

> <r_i_glide_ligand_efficiency_sa>
-0.73438730378965

> <r_i_glide_ligand_efficiency_ln>
-1.65754544205617

> <r_i_glide_gscore>
-7.40216019111228

> <r_i_glide_lipo>
-2.83233992984736

> <r_i_glide_hbond>
-0.339687492740865

> <r_i_glide_metal>
0

> <r_i_glide_rewards>
-1.03371212430756

> <r_i_glide_evdw>
-52.9122161865234

> <r_i_glide_ecoul>
-9.81052589416504

> <r_i_glide_erotb>
1.00422350762487

> <r_i_glide_esite>
-0.0834544583904431

> <r_i_glide_emodel>
-86.4035399318982

> <r_i_glide_energy>
-62.7227420806885

> <r_i_glide_einternal>
11.4397678375244

> <i_i_glide_confnum>
250

> <i_i_glide_posenum>
119

> <r_i_glide_eff_state_penalty>
0

> <s_user_duplicate_titles>
CHEMBL1952_lig340

> <i_f3d_flags>
0

> <s_m_subgroup_title>
dock_pv

> <s_m_subgroupid>
dock_pv

> <b_m_subgroup_collapsed>
1

$$$$
CHEMBL1952_lig10
                    3D
 Schrodinger Suite 2021-1.
 40 41  0  0  1  0            999 V2000
   12.0365   19.8643   32.1229 P   0  0  0  0  0  0
   12.1920   21.3825   31.5920 O   0  0  0  0  0  0
   10.9920   19.7072   33.1691 O   0  0  0  0  0  0
   14.5925   17.1740   30.4706 O   0  0  0  0  0  0
   14.8221   16.6093   31.7474 C   0  0  1  0  0  0
   16.0490   15.7023   31.7992 C   0  0  0  0  0  0
   15.0744   17.6502   32.8371 C   0  0  2  0  0  0
   16.6554   16.0400   33.1694 C   0  0  1  0  0  0
   15.7105   16.8465   33.8180 O   0  0  0  0  0  0
   13.8068   18.3212   33.3851 C   0  0  0  0  0  0
   17.1241   14.9229   33.9825 N   0  0  0  0  0  0
   16.3652   14.4209   35.0132 C   0  0  0  0  0  0
   16.5937   13.2365   35.6304 C   0  0  0  0  0  0
   17.7462   12.4528   35.1723 C   0  0  0  0  0  0
   18.4732   13.0640   34.1925 N   0  0  0  0  0  0
   18.2536   14.2538   33.5547 C   0  0  0  0  0  0
   18.0613   11.3384   35.5888 O   0  0  0  0  0  0
   13.5452   19.4292   32.5391 O   0  0  0  0  0  0
   11.7919   19.0480   30.7492 O   0  0  0  0  0  0
   19.0131   14.6280   32.6640 O   0  0  0  0  0  0
   15.7548   12.7022   36.7011 C   0  0  0  0  0  0
   14.4835   13.0792   36.9526 C   0  0  0  0  0  0
   13.5948   12.5426   38.0599 C   0  0  0  0  0  0
   12.4206   12.1833   37.5446 F   0  0  0  0  0  0
   13.3917   13.4997   38.9646 F   0  0  0  0  0  0
   14.1446   11.4850   38.6586 F   0  0  0  0  0  0
   11.6445   22.0350   32.0678 H   0  0  0  0  0  0
   13.9323   17.8717   30.5504 H   0  0  0  0  0  0
   13.9559   16.0055   32.0239 H   0  0  0  0  0  0
   16.7816   15.9264   31.0227 H   0  0  0  0  0  0
   15.7924   14.6451   31.7294 H   0  0  0  0  0  0
   15.7913   18.4166   32.5443 H   0  0  0  0  0  0
   17.5444   16.6634   33.0431 H   0  0  0  0  0  0
   12.9701   17.6235   33.4461 H   0  0  0  0  0  0
   13.9830   18.6963   34.3935 H   0  0  0  0  0  0
   15.5411   15.0646   35.2813 H   0  0  0  0  0  0
   19.2779   12.5493   33.8580 H   0  0  0  0  0  0
   10.8815   19.2099   30.3910 H   0  0  0  0  0  0
   16.1918   11.9530   37.3476 H   0  0  0  0  0  0
   14.0129   13.8324   36.3390 H   0  0  0  0  0  0
  1  2  1  0  0  0
  1  3  2  0  0  0
  1 18  1  0  0  0
  1 19  1  0  0  0
  2 27  1  0  0  0
  4  5  1  0  0  0
  4 28  1  0  0  0
  5  6  1  0  0  0
  5  7  1  0  0  0
  5 29  1  0  0  0
  6  8  1  0  0  0
  6 30  1  0  0  0
  6 31  1  0  0  0
  7  9  1  0  0  0
  7 10  1  0  0  0
  7 32  1  0  0  0
  8  9  1  0  0  0
  8 11  1  0  0  0
  8 33  1  0  0  0
 10 18  1  0  0  0
 10 34  1  0  0  0
 10 35  1  0  0  0
 11 12  1  0  0  0
 11 16  1  0  0  0
 12 13  2  0  0  0
 12 36  1  0  0  0
 13 14  1  0  0  0
 13 21  1  0  0  0
 14 15  1  0  0  0
 14 17  2  0  0  0
 15 16  1  0  0  0
 15 37  1  0  0  0
 16 20  2  0  0  0
 19 38  1  0  0  0
 21 22  2  0  0  0
 21 39  1  0  0  0
 22 23  1  0  0  0
 22 40  1  0  0  0
 23 24  1  0  0  0
 23 25  1  0  0  0
 23 26  1  0  0  0
M  END
> <s_m_entry_id>
41273

> <s_m_entry_name>
dock_pv.390

> <s_m_Source_Path>
/home/csk/Desktop/cluster/DUD-E-result/tysy

> <s_m_Source_File>
dock_pv.maegz

> <i_m_Source_File_Index>
390

> <chembl_id>
CHEMBL3228982

> <chembl_pref_name>
None

> <i_lp_mmshare_version>
53161

> <r_lp_tautomer_probability>
1

> <s_lp_Force_Field>
OPLS_2005

> <r_lp_Energy>
20.104044

> <b_lp_Chiralities_Consistent>
1

> <s_lp_Variant>
CHEMBL1952_lig10-1

> <s_i_glide_gridfile>
glide-grid_1syn

> <i_i_glide_lignum>
11

> <i_i_glide_rotatable_bonds>
9

> <r_i_docking_score>
-7.401390002936

> <r_i_glide_ligand_efficiency>
-0.284668846266769

> <r_i_glide_ligand_efficiency_sa>
-0.843330336947482

> <r_i_glide_ligand_efficiency_ln>
-1.73819215624807

> <r_i_glide_gscore>
-7.401390002936

> <r_i_glide_lipo>
-2.08420309242679

> <r_i_glide_hbond>
-0.257101612376312

> <r_i_glide_metal>
0

> <r_i_glide_rewards>
-1.94939226887081

> <r_i_glide_evdw>
-39.6615562438965

> <r_i_glide_ecoul>
-12.0713939666748

> <r_i_glide_erotb>
0.72772157708099

> <r_i_glide_esite>
-0.0446276991470415

> <r_i_glide_emodel>
-68.7501275782626

> <r_i_glide_energy>
-51.7329502105713

> <r_i_glide_einternal>
8.07212543487549

> <i_i_glide_confnum>
140

> <i_i_glide_posenum>
104

> <r_i_glide_eff_state_penalty>
0

> <s_user_duplicate_titles>
CHEMBL1952_lig10

> <i_f3d_flags>
0

> <s_m_subgroup_title>
dock_pv

> <s_m_subgroupid>
dock_pv

> <b_m_subgroup_collapsed>
1

$$$$
CHEMBL1952_lig396
                    3D
 Schrodinger Suite 2021-1.
 30 32  0  0  1  0            999 V2000
   13.8290   17.9644   32.0010 C   0  0  0  0  0  0
   14.6566   16.8894   31.3013 C   0  0  0  0  0  0
   13.0596   18.6793   31.1509 N   0  0  0  0  0  0
   13.6193   17.6146   29.1905 N   0  0  0  0  0  0
   14.4464   16.7511   29.9184 C   0  0  0  0  0  0
   12.9919   18.5461   29.7979 C   0  0  0  0  0  0
   15.5683   16.0324   31.9620 C   0  0  0  0  0  0
   15.9381   16.2199   33.7071 S   0  0  0  0  0  0
   13.7721   18.2209   33.1978 O   0  0  0  0  0  0
   18.5929   12.7006   34.8947 N   0  0  0  0  0  0
   17.0044   14.8927   34.1910 C   0  0  0  0  0  0
   15.0898   15.7573   29.1927 C   0  0  0  0  0  0
   16.1924   15.0280   31.2048 C   0  0  0  0  0  0
   16.5704   13.9924   35.1686 C   0  0  0  0  0  0
   18.2748   14.7366   33.6280 C   0  0  0  0  0  0
   12.1921   19.5407   29.0128 C   0  0  0  0  0  0
   19.0255   13.6185   33.9923 C   0  0  0  0  0  0
   17.3875   12.9063   35.4828 C   0  0  0  0  0  0
   15.9557   14.8867   29.8399 C   0  0  0  0  0  0
   12.5259   19.4050   31.6001 H   0  0  0  0  0  0
   14.9099   15.6589   28.1315 H   0  0  0  0  0  0
   16.8593   14.3094   31.6482 H   0  0  0  0  0  0
   15.6088   14.1129   35.6450 H   0  0  0  0  0  0
   18.6501   15.4286   32.8882 H   0  0  0  0  0  0
   11.3916   19.0281   28.4926 H   0  0  0  0  0  0
   11.7525   20.3124   29.6435 H   0  0  0  0  0  0
   12.8127   20.0342   28.2654 H   0  0  0  0  0  0
   19.9899   13.4301   33.5405 H   0  0  0  0  0  0
   17.0815   12.1781   36.2199 H   0  0  0  0  0  0
   16.4463   14.0998   29.2848 H   0  0  0  0  0  0
  1  9  2  0  0  0
  1  2  1  0  0  0
  1  3  1  0  0  0
  2  7  1  0  0  0
  2  5  2  0  0  0
  3  6  1  0  0  0
  3 20  1  0  0  0
  4  5  1  0  0  0
  4  6  2  0  0  0
  5 12  1  0  0  0
  6 16  1  0  0  0
  7  8  1  0  0  0
  7 13  2  0  0  0
  8 11  1  0  0  0
 10 17  1  0  0  0
 10 18  2  0  0  0
 11 14  2  0  0  0
 11 15  1  0  0  0
 12 19  2  0  0  0
 12 21  1  0  0  0
 13 22  1  0  0  0
 13 19  1  0  0  0
 14 18  1  0  0  0
 14 23  1  0  0  0
 15 17  2  0  0  0
 15 24  1  0  0  0
 16 25  1  0  0  0
 16 26  1  0  0  0
 16 27  1  0  0  0
 17 28  1  0  0  0
 18 29  1  0  0  0
 19 30  1  0  0  0
M  END
> <s_m_entry_id>
41275

> <s_m_entry_name>
dock_pv.392

> <s_m_Source_Path>
/home/csk/Desktop/cluster/DUD-E-result/tysy

> <s_m_Source_File>
dock_pv.maegz

> <i_m_Source_File_Index>
392

> <chembl_id>
CHEMBL163096

> <chembl_pref_name>
None

> <i_lp_mmshare_version>
53161

> <r_lp_tautomer_probability>
0.883938

> <s_lp_Force_Field>
OPLS_2005

> <r_lp_Energy>
20.301326

> <b_lp_Chiralities_Consistent>
1

> <s_lp_Variant>
CHEMBL1952_lig396-1

> <s_i_glide_gridfile>
glide-grid_1syn

> <i_i_glide_lignum>
780

> <i_i_glide_rotatable_bonds>
2

> <r_i_docking_score>
-7.39311269142544

> <r_i_glide_ligand_efficiency>
-0.389111194285549

> <r_i_glide_ligand_efficiency_sa>
-1.03830495134865

> <r_i_glide_ligand_efficiency_ln>
-1.87431285677736

> <r_i_glide_gscore>
-7.39311269142544

> <r_i_glide_lipo>
-3.10661020228594

> <r_i_glide_hbond>
0

> <r_i_glide_metal>
0

> <r_i_glide_rewards>
-2.07211402192033

> <r_i_glide_evdw>
-41.0235939025879

> <r_i_glide_ecoul>
-4.37223148345947

> <r_i_glide_erotb>
0.492625950429151

> <r_i_glide_esite>
0

> <r_i_glide_emodel>
-66.1395230791553

> <r_i_glide_energy>
-45.3958253860474

> <r_i_glide_einternal>
1.19150793552399

> <i_i_glide_confnum>
4

> <i_i_glide_posenum>
169

> <r_i_glide_eff_state_penalty>
0

> <s_user_duplicate_titles>
CHEMBL1952_lig396,272417

> <i_f3d_flags>
0

> <s_m_subgroup_title>
dock_pv

> <s_m_subgroupid>
dock_pv

> <b_m_subgroup_collapsed>
1

$$$$
CHEMBL1952_lig475
                    3D
 Schrodinger Suite 2021-1.
 27 29  0  0  1  0            999 V2000
   13.5379   17.9713   29.5142 C   0  0  0  0  0  0
   12.8011   18.9789   31.6898 C   0  0  0  0  0  0
   12.3299   18.4292   30.3290 C   0  0  0  0  0  0
   14.4071   17.0144   30.2570 C   0  0  0  0  0  0
   15.2207   16.1220   29.5517 C   0  0  0  0  0  0
   16.0937   15.2632   30.2067 C   0  0  0  0  0  0
   16.1936   15.2746   31.5934 C   0  0  0  0  0  0
   13.6948   17.9721   32.4244 C   0  0  0  0  0  0
   14.5104   17.0406   31.6918 C   0  0  0  0  0  0
   15.3969   16.1520   32.3755 C   0  0  0  0  0  0
   15.4306   16.1867   33.8025 C   0  0  0  0  0  0
   14.5931   17.0621   34.4934 C   0  0  0  0  0  0
   13.7597   17.9419   33.8173 C   0  0  0  0  0  0
   13.7922   18.3527   28.3711 O   0  0  0  0  0  0
   16.3806   15.2808   34.5772 C   0  0  0  0  0  0
   13.3504   19.9123   31.5561 H   0  0  0  0  0  0
   11.9322   19.2275   32.3006 H   0  0  0  0  0  0
   11.7028   17.5607   30.5311 H   0  0  0  0  0  0
   11.7547   19.1682   29.7709 H   0  0  0  0  0  0
   15.1786   16.0818   28.4716 H   0  0  0  0  0  0
   16.6995   14.5781   29.6323 H   0  0  0  0  0  0
   16.8781   14.5925   32.0722 H   0  0  0  0  0  0
   14.6101   17.0852   35.5729 H   0  0  0  0  0  0
   13.1548   18.6278   34.3915 H   0  0  0  0  0  0
   16.2973   15.4264   35.6553 H   0  0  0  0  0  0
   16.1800   14.2306   34.3768 H   0  0  0  0  0  0
   17.4123   15.4878   34.2932 H   0  0  0  0  0  0
  1  4  1  0  0  0
  1  3  1  0  0  0
  1 14  2  0  0  0
  2  8  1  0  0  0
  2  3  1  0  0  0
  2 16  1  0  0  0
  2 17  1  0  0  0
  3 18  1  0  0  0
  3 19  1  0  0  0
  4  9  2  0  0  0
  4  5  1  0  0  0
  5  6  2  0  0  0
  5 20  1  0  0  0
  6  7  1  0  0  0
  6 21  1  0  0  0
  7 10  2  0  0  0
  7 22  1  0  0  0
  8  9  1  0  0  0
  8 13  2  0  0  0
  9 10  1  0  0  0
 10 11  1  0  0  0
 11 12  2  0  0  0
 11 15  1  0  0  0
 12 13  1  0  0  0
 12 23  1  0  0  0
 13 24  1  0  0  0
 15 25  1  0  0  0
 15 26  1  0  0  0
 15 27  1  0  0  0
M  END
> <s_m_entry_id>
41276

> <s_m_entry_name>
dock_pv.393

> <s_m_Source_Path>
/home/csk/Desktop/cluster/DUD-E-result/tysy

> <s_m_Source_File>
dock_pv.maegz

> <i_m_Source_File_Index>
393

> <chembl_id>
CHEMBL2323367

> <chembl_pref_name>
None

> <i_lp_mmshare_version>
53161

> <r_lp_tautomer_probability>
0.99995

> <s_lp_Force_Field>
OPLS_2005

> <r_lp_Energy>
35.187161

> <b_lp_Chiralities_Consistent>
1

> <s_lp_Variant>
CHEMBL1952_lig475-1

> <s_i_glide_gridfile>
glide-grid_1syn

> <i_i_glide_lignum>
905

> <i_i_glide_rotatable_bonds>
0

> <r_i_docking_score>
-7.39001028251592

> <r_i_glide_ligand_efficiency>
-0.492667352167728

> <r_i_glide_ligand_efficiency_sa>
-1.21502217144769

> <r_i_glide_ligand_efficiency_ln>
-1.99296392490028

> <r_i_glide_gscore>
-7.39001028251592

> <r_i_glide_lipo>
-3.14462127508756

> <r_i_glide_hbond>
0

> <r_i_glide_metal>
0

> <r_i_glide_rewards>
-2.52936165223427

> <r_i_glide_evdw>
-30.5275230407715

> <r_i_glide_ecoul>
-1.26434135437012

> <r_i_glide_erotb>
0

> <r_i_glide_esite>
0

> <r_i_glide_emodel>
-46.2923977617531

> <r_i_glide_energy>
-31.7918643951416

> <r_i_glide_einternal>
0

> <i_i_glide_confnum>
1

> <i_i_glide_posenum>
181

> <r_i_glide_eff_state_penalty>
0

> <s_user_duplicate_titles>
CHEMBL1952_lig475

> <i_f3d_flags>
0

> <s_m_subgroup_title>
dock_pv

> <s_m_subgroupid>
dock_pv

> <b_m_subgroup_collapsed>
1

$$$$
CHEMBL1952_lig99
                    3D
 Schrodinger Suite 2021-1.
 32 34  0  0  1  0            999 V2000
   12.9920   17.3793   30.4506 N   0  0  0  0  0  0
   15.7213   16.1364   32.3156 C   0  0  0  0  0  0
   14.3290   16.7097   32.5081 C   0  0  2  0  0  0
   13.6156   16.2962   31.1910 C   0  0  2  0  0  0
   14.2297   18.2166   32.9090 C   0  0  0  0  0  0
   13.4303   19.0280   32.1126 N   0  0  0  0  0  0
   12.8979   18.6675   31.0203 C   0  0  0  0  0  0
   14.6520   15.6572   30.4000 N   0  0  0  0  0  0
   15.8245   15.5571   31.1085 C   0  0  0  0  0  0
   17.0232   16.2440   33.5376 S   0  0  0  0  0  0
   14.8469   18.5802   33.9098 O   0  0  0  0  0  0
   15.8649   12.8396   36.3470 N   0  0  0  0  0  0
   12.1920   19.6539   30.3145 N   0  0  0  0  0  0
   16.5765   14.9347   34.6314 C   0  0  0  0  0  0
   16.9908   14.8710   30.4303 C   0  0  0  0  0  0
   15.4231   15.0280   35.4151 C   0  0  0  0  0  0
   17.3871   13.8004   34.7273 C   0  0  0  0  0  0
   16.9920   12.7762   35.5910 C   0  0  0  0  0  0
   15.1043   13.9608   36.2564 C   0  0  0  0  0  0
   13.8262   16.2280   33.3427 H   0  0  0  0  0  0
   12.8484   15.5535   31.4152 H   0  0  0  0  0  0
   11.2615   19.4096   29.9910 H   0  0  0  0  0  0
   14.2796   14.7935   30.0324 H   0  0  0  0  0  0
   12.1228   20.5430   30.7850 H   0  0  0  0  0  0
   12.3016   17.1364   29.7578 H   0  0  0  0  0  0
   17.8845   14.8975   31.0544 H   0  0  0  0  0  0
   16.7544   13.8264   30.2248 H   0  0  0  0  0  0
   17.2228   15.3646   29.4869 H   0  0  0  0  0  0
   14.8010   15.9102   35.3870 H   0  0  0  0  0  0
   18.2890   13.7082   34.1386 H   0  0  0  0  0  0
   17.5880   11.8805   35.6894 H   0  0  0  0  0  0
   14.2252   13.9984   36.8823 H   0  0  0  0  0  0
  1  4  1  0  0  0
  1 25  1  0  0  0
  1  7  1  0  0  0
  2  3  1  0  0  0
  2 10  1  0  0  0
  2  9  2  0  0  0
  3  4  1  0  0  0
  3 20  1  0  0  0
  3  5  1  0  0  0
  4  8  1  0  0  0
  4 21  1  0  0  0
  5  6  1  0  0  0
  5 11  2  0  0  0
  6  7  2  0  0  0
  7 13  1  0  0  0
  8  9  1  0  0  0
  8 23  1  0  0  0
  9 15  1  0  0  0
 10 14  1  0  0  0
 12 18  1  0  0  0
 12 19  2  0  0  0
 13 24  1  0  0  0
 13 22  1  0  0  0
 14 16  2  0  0  0
 14 17  1  0  0  0
 15 26  1  0  0  0
 15 27  1  0  0  0
 15 28  1  0  0  0
 16 19  1  0  0  0
 16 29  1  0  0  0
 17 18  2  0  0  0
 17 30  1  0  0  0
 18 31  1  0  0  0
 19 32  1  0  0  0
M  END
> <s_m_entry_id>
41277

> <s_m_entry_name>
dock_pv.394

> <s_m_Source_Path>
/home/csk/Desktop/cluster/DUD-E-result/tysy

> <s_m_Source_File>
dock_pv.maegz

> <i_m_Source_File_Index>
394

> <chembl_id>
CHEMBL138500

> <chembl_pref_name>
None

> <i_lp_mmshare_version>
53161

> <r_lp_tautomer_probability>
0.615378461538462

> <s_lp_Force_Field>
OPLS_2005

> <r_lp_Energy>
18.023535

> <b_lp_Chiralities_Consistent>
1

> <s_lp_Variant>
CHEMBL1952_lig99-3

> <s_i_glide_gridfile>
glide-grid_1syn

> <i_i_glide_lignum>
174

> <i_i_glide_rotatable_bonds>
2

> <r_i_docking_score>
-7.38422283270108

> <r_i_glide_ligand_efficiency>
-0.388643306984267

> <r_i_glide_ligand_efficiency_sa>
-1.03705644010372

> <r_i_glide_ligand_efficiency_ln>
-1.87205908665408

> <r_i_glide_gscore>
-7.38422283270108

> <r_i_glide_lipo>
-2.74676354146653

> <r_i_glide_hbond>
-0.278533345628385

> <r_i_glide_metal>
0

> <r_i_glide_rewards>
-2.21160506097215

> <r_i_glide_evdw>
-39.4993209838867

> <r_i_glide_ecoul>
-3.94770479202271

> <r_i_glide_erotb>
0.474163199295576

> <r_i_glide_esite>
-0.0543623159318406

> <r_i_glide_emodel>
-57.7944031981326

> <r_i_glide_energy>
-43.4470257759094

> <r_i_glide_einternal>
2.55287599563599

> <i_i_glide_confnum>
5

> <i_i_glide_posenum>
282

> <r_i_glide_eff_state_penalty>
0

> <s_user_duplicate_titles>
CHEMBL1952_lig99

> <i_f3d_flags>
0

> <s_m_subgroup_title>
dock_pv

> <s_m_subgroupid>
dock_pv

> <b_m_subgroup_collapsed>
1

$$$$
CHEMBL1952_lig48
                    3D
 Schrodinger Suite 2021-1.
 27 29  0  0  1  0            999 V2000
   15.7773   16.2602   33.0375 C   0  0  0  0  0  0
   15.3936   16.3236   31.6423 C   0  0  0  0  0  0
   16.7938   15.4712   33.4609 N   0  0  0  0  0  0
   17.4246   14.6834   32.5571 C   0  0  0  0  0  0
   17.1168   14.6153   31.2499 N   0  0  0  0  0  0
   16.1109   15.4079   30.8010 C   0  0  0  0  0  0
   14.4069   17.1807   31.0337 C   0  0  0  0  0  0
   18.4742   13.8280   32.9209 N   0  0  0  0  0  0
   15.0680   16.9681   33.9659 O   0  0  0  0  0  0
   18.8030   13.3982   34.1531 C   0  0  0  0  0  0
   14.1283   17.0271   29.6337 C   0  0  0  0  0  0
   13.6915   18.2268   31.7125 C   0  0  0  0  0  0
   15.7923   15.2752   29.4440 C   0  0  0  0  0  0
   18.1921   13.6441   35.1914 O   0  0  0  0  0  0
   14.8113   16.0587   28.8766 C   0  0  0  0  0  0
   13.1741   17.8531   28.9963 C   0  0  0  0  0  0
   12.7384   19.0034   31.0551 C   0  0  0  0  0  0
   12.4769   18.8140   29.7095 C   0  0  0  0  0  0
   11.8030   20.3695   31.9910 Br  0  0  0  0  0  0
   19.0253   13.4675   32.1520 H   0  0  0  0  0  0
   14.2206   17.2564   33.6300 H   0  0  0  0  0  0
   19.7010   12.7618   34.1060 H   0  0  0  0  0  0
   13.8762   18.5024   32.7331 H   0  0  0  0  0  0
   16.3178   14.5515   28.8366 H   0  0  0  0  0  0
   14.5915   15.9394   27.8255 H   0  0  0  0  0  0
   12.9914   17.7352   27.9385 H   0  0  0  0  0  0
   11.7378   19.4281   29.2124 H   0  0  0  0  0  0
  1  2  1  0  0  0
  1  3  2  0  0  0
  1  9  1  0  0  0
  2  6  2  0  0  0
  2  7  1  0  0  0
  3  4  1  0  0  0
  4  5  2  0  0  0
  4  8  1  0  0  0
  5  6  1  0  0  0
  6 13  1  0  0  0
  7 11  2  0  0  0
  7 12  1  0  0  0
  8 10  1  0  0  0
  8 20  1  0  0  0
  9 21  1  0  0  0
 10 14  2  0  0  0
 10 22  1  0  0  0
 11 15  1  0  0  0
 11 16  1  0  0  0
 12 17  2  0  0  0
 12 23  1  0  0  0
 13 15  2  0  0  0
 13 24  1  0  0  0
 15 25  1  0  0  0
 16 18  2  0  0  0
 16 26  1  0  0  0
 17 18  1  0  0  0
 17 19  1  0  0  0
 18 27  1  0  0  0
M  END
> <s_m_entry_id>
41278

> <s_m_entry_name>
dock_pv.395

> <s_m_Source_Path>
/home/csk/Desktop/cluster/DUD-E-result/tysy

> <s_m_Source_File>
dock_pv.maegz

> <i_m_Source_File_Index>
395

> <chembl_id>
CHEMBL75759

> <chembl_pref_name>
None

> <i_lp_mmshare_version>
53161

> <r_lp_tautomer_probability>
1

> <s_lp_Force_Field>
OPLS_2005

> <r_lp_Energy>
17.722069

> <b_lp_Chiralities_Consistent>
1

> <s_lp_Variant>
CHEMBL1952_lig48-1

> <s_i_glide_gridfile>
glide-grid_1syn

> <i_i_glide_lignum>
66

> <i_i_glide_rotatable_bonds>
3

> <r_i_docking_score>
-7.38318611595755

> <r_i_glide_ligand_efficiency>
-0.388588742945134

> <r_i_glide_ligand_efficiency_sa>
-1.03691084133188

> <r_i_glide_ligand_efficiency_ln>
-1.87179625669296

> <r_i_glide_gscore>
-7.38318611595755

> <r_i_glide_lipo>
-3.05791265318779

> <r_i_glide_hbond>
-0.0515482417468898

> <r_i_glide_metal>
0

> <r_i_glide_rewards>
-1.63735765235269

> <r_i_glide_evdw>
-40.7463150024414

> <r_i_glide_ecoul>
-4.42729187011719

> <r_i_glide_erotb>
0.184187816546205

> <r_i_glide_esite>
-0.119145854576746

> <r_i_glide_emodel>
-66.0725093936897

> <r_i_glide_energy>
-45.1736068725586

> <r_i_glide_einternal>
1.23700678348541

> <i_i_glide_confnum>
2

> <i_i_glide_posenum>
314

> <r_i_glide_eff_state_penalty>
0

> <s_user_duplicate_titles>
CHEMBL1952_lig48

> <i_f3d_flags>
0

> <s_m_subgroup_title>
dock_pv

> <s_m_subgroupid>
dock_pv

> <b_m_subgroup_collapsed>
1

$$$$
CHEMBL1952_lig270
                    3D
 Schrodinger Suite 2021-1.
 56 59  0  0  1  0            999 V2000
   12.8167    5.9927   36.3006 N   0  0  0  0  0  0
   11.9655    5.6212   37.3016 C   0  0  0  0  0  0
   11.6894    6.4159   38.2688 N   0  0  0  0  0  0
   13.4309    7.1917   36.1506 C   0  0  0  0  0  0
   11.3917    4.2253   37.2641 C   0  0  0  0  0  0
   14.1594    7.4291   35.1913 O   0  0  0  0  0  0
   13.1303    8.1376   37.2869 C   0  0  0  0  0  0
   12.2662    7.6959   38.2936 C   0  0  0  0  0  0
   11.9824    8.5275   39.3722 C   0  0  0  0  0  0
   12.5762    9.7882   39.4588 C   0  0  0  0  0  0
   13.4475   10.2303   38.4457 C   0  0  0  0  0  0
   13.7083    9.4064   37.3451 C   0  0  0  0  0  0
   12.1923   10.8588   40.9916 Br  0  0  0  0  0  0
   14.1885   11.5573   38.5445 C   0  0  0  0  0  0
   13.7154   12.5659   37.5878 N   0  0  0  0  0  0
   14.6380   13.1994   36.7030 C   0  0  0  0  0  0
   12.3638   13.1006   37.8085 C   0  0  0  0  0  0
   11.3974   12.6469   36.7936 C   0  0  0  0  0  0
   10.5907   12.2261   35.9791 C   0  0  0  0  0  0
   15.8307   12.5594   36.3206 C   0  0  0  0  0  0
   16.7262   13.1612   35.4430 C   0  0  0  0  0  0
   16.4477   14.4267   34.9208 C   0  0  0  0  0  0
   15.2842   15.0883   35.3093 C   0  0  0  0  0  0
   14.3811   14.4713   36.1664 C   0  0  0  0  0  0
   17.2945   15.0273   33.8393 C   0  0  0  0  0  0
   17.5147   14.1976   32.8091 N   0  0  0  0  0  0
   17.5938   16.2222   33.8370 O   0  0  0  0  0  0
   17.7727   14.6264   31.4405 C   0  0  0  0  0  0
   16.5077   15.0747   30.7009 C   0  0  0  0  0  0
   16.0652   14.3541   29.5902 C   0  0  0  0  0  0
   14.9763   14.8257   28.8640 C   0  0  0  0  0  0
   14.2946   15.9504   29.1956 N   0  0  0  0  0  0
   14.6970   16.6238   30.3020 C   0  0  0  0  0  0
   15.7899   16.2244   31.0722 C   0  0  0  0  0  0
   13.0380    5.3055   35.5919 H   0  0  0  0  0  0
   10.3701    4.2100   37.6440 H   0  0  0  0  0  0
   11.3741    3.8251   36.2492 H   0  0  0  0  0  0
   11.9874    3.5505   37.8775 H   0  0  0  0  0  0
   11.3185    8.1797   40.1480 H   0  0  0  0  0  0
   14.3764    9.7451   36.5633 H   0  0  0  0  0  0
   14.1238   11.9809   39.5456 H   0  0  0  0  0  0
   15.2441   11.3277   38.4365 H   0  0  0  0  0  0
   11.9777   12.7509   38.7660 H   0  0  0  0  0  0
   12.3446   14.1853   37.8933 H   0  0  0  0  0  0
    9.8932   11.8600   35.2591 H   0  0  0  0  0  0
   16.0773   11.5637   36.6462 H   0  0  0  0  0  0
   17.6154   12.6212   35.1456 H   0  0  0  0  0  0
   15.0409   16.0620   34.9037 H   0  0  0  0  0  0
   13.4816   15.0200   36.3849 H   0  0  0  0  0  0
   17.2985   13.2206   32.9329 H   0  0  0  0  0  0
   18.5100   15.4285   31.4262 H   0  0  0  0  0  0
   18.2382   13.7939   30.9079 H   0  0  0  0  0  0
   16.5631   13.4495   29.2801 H   0  0  0  0  0  0
   14.6336   14.2931   27.9916 H   0  0  0  0  0  0
   14.1376   17.5129   30.5549 H   0  0  0  0  0  0
   16.0910   16.8218   31.9193 H   0  0  0  0  0  0
  1  4  1  0  0  0
  1  2  1  0  0  0
  1 35  1  0  0  0
  2  5  1  0  0  0
  2  3  2  0  0  0
  3  8  1  0  0  0
  4  7  1  0  0  0
  4  6  2  0  0  0
  5 36  1  0  0  0
  5 37  1  0  0  0
  5 38  1  0  0  0
  7  8  2  0  0  0
  7 12  1  0  0  0
  8  9  1  0  0  0
  9 10  2  0  0  0
  9 39  1  0  0  0
 10 11  1  0  0  0
 10 13  1  0  0  0
 11 12  2  0  0  0
 11 14  1  0  0  0
 12 40  1  0  0  0
 14 15  1  0  0  0
 14 41  1  0  0  0
 14 42  1  0  0  0
 15 17  1  0  0  0
 15 16  1  0  0  0
 16 20  2  0  0  0
 16 24  1  0  0  0
 17 18  1  0  0  0
 17 43  1  0  0  0
 17 44  1  0  0  0
 18 19  3  0  0  0
 19 45  1  0  0  0
 20 21  1  0  0  0
 20 46  1  0  0  0
 21 22  2  0  0  0
 21 47  1  0  0  0
 22 23  1  0  0  0
 22 25  1  0  0  0
 23 24  2  0  0  0
 23 48  1  0  0  0
 24 49  1  0  0  0
 25 26  1  0  0  0
 25 27  2  0  0  0
 26 28  1  0  0  0
 26 50  1  0  0  0
 28 29  1  0  0  0
 28 51  1  0  0  0
 28 52  1  0  0  0
 29 30  2  0  0  0
 29 34  1  0  0  0
 30 31  1  0  0  0
 30 53  1  0  0  0
 31 32  2  0  0  0
 31 54  1  0  0  0
 32 33  1  0  0  0
 33 34  2  0  0  0
 33 55  1  0  0  0
 34 56  1  0  0  0
M  END
> <s_m_entry_id>
41279

> <s_m_entry_name>
dock_pv.396

> <s_m_Source_Path>
/home/csk/Desktop/cluster/DUD-E-result/tysy

> <s_m_Source_File>
dock_pv.maegz

> <i_m_Source_File_Index>
396

> <chembl_id>
CHEMBL1801873

> <chembl_pref_name>
None

> <i_lp_mmshare_version>
53161

> <r_lp_tautomer_probability>
0.883938

> <s_lp_Force_Field>
OPLS_2005

> <r_lp_Energy>
23.451215

> <b_lp_Chiralities_Consistent>
1

> <s_lp_Variant>
CHEMBL1952_lig270-1

> <s_i_glide_gridfile>
glide-grid_1syn

> <i_i_glide_lignum>
537

> <i_i_glide_rotatable_bonds>
9

> <r_i_docking_score>
-7.36948696489407

> <r_i_glide_ligand_efficiency>
-0.216749616614532

> <r_i_glide_ligand_efficiency_sa>
-0.702184615081421

> <r_i_glide_ligand_efficiency_ln>
-1.62812637765283

> <r_i_glide_gscore>
-7.36948696489407

> <r_i_glide_lipo>
-3.35289839513209

> <r_i_glide_hbond>
-0.587919950061773

> <r_i_glide_metal>
0

> <r_i_glide_rewards>
-0.422570080233959

> <r_i_glide_evdw>
-45.303165435791

> <r_i_glide_ecoul>
-8.80897331237793

> <r_i_glide_erotb>
0.615777662842674

> <r_i_glide_esite>
-0.0353719336626893

> <r_i_glide_emodel>
-73.4960941205626

> <r_i_glide_energy>
-54.1121387481689

> <r_i_glide_einternal>
9.27692890167236

> <i_i_glide_confnum>
3

> <i_i_glide_posenum>
182

> <r_i_glide_eff_state_penalty>
0

> <s_user_duplicate_titles>
CHEMBL1952_lig270,CHEMBL1952_lig270

> <i_f3d_flags>
0

> <s_m_subgroup_title>
dock_pv

> <s_m_subgroupid>
dock_pv

> <b_m_subgroup_collapsed>
1

$$$$
CHEMBL1952_lig219
                    3D
 Schrodinger Suite 2021-1.
 58 60  0  0  1  0            999 V2000
   14.6866   16.6045   29.7563 N   0  0  0  0  0  0
   13.7990   17.3643   30.2742 C   0  0  0  0  0  0
   13.5880   17.5123   31.6305 N   0  0  0  0  0  0
   15.5581   15.8335   30.5402 C   0  0  0  0  0  0
   16.4173   15.0751   30.0974 O   0  0  0  0  0  0
   15.3980   15.9932   32.0477 C   0  0  0  0  0  0
   14.3819   16.8166   32.5464 C   0  0  0  0  0  0
   14.1764   16.9370   33.9158 C   0  0  0  0  0  0
   14.9941   16.2292   34.7969 C   0  0  0  0  0  0
   16.0484   15.4355   34.3228 C   0  0  0  0  0  0
   16.2529   15.3286   32.9395 C   0  0  0  0  0  0
   17.0053   14.7724   35.3198 C   0  0  0  0  0  0
   17.1968   13.3308   35.0784 N   0  0  0  0  0  0
   16.3153   12.3784   35.6582 C   0  0  0  0  0  0
   16.6022   11.0067   35.5922 C   0  0  0  0  0  0
   15.7301   10.0582   36.1124 C   0  0  0  0  0  0
   14.5362   10.4464   36.7337 C   0  0  0  0  0  0
   14.2478   11.8154   36.8330 C   0  0  0  0  0  0
   15.1257   12.7595   36.2997 C   0  0  0  0  0  0
   13.5700    9.4006   37.2292 C   0  0  0  0  0  0
   12.3565    9.5395   37.0854 O   0  0  0  0  0  0
   14.1439    8.3034   37.7606 N   0  0  0  0  0  0
   13.5087    7.0091   38.0580 C   0  0  1  0  0  0
   12.3578    7.1130   39.1018 C   0  0  0  0  0  0
   13.1368    6.2455   36.7633 C   0  0  0  0  0  0
   12.6039    5.0311   37.0817 O   0  0  0  0  0  0
   13.3923    6.6279   35.6355 O   0  0  0  0  0  0
   12.8364    7.5772   40.4939 C   0  0  0  0  0  0
   11.7910    7.3318   41.5817 C   0  0  0  0  0  0
   11.6254    6.0066   41.8564 O   0  0  0  0  0  0
   11.1880    8.2280   42.1627 O   0  0  0  0  0  0
   12.9168   18.1814   29.3575 C   0  0  0  0  0  0
   13.1189   12.2529   37.4410 F   0  0  0  0  0  0
   18.4350   12.8281   34.4520 C   0  0  0  0  0  0
   19.2876   13.8360   33.8063 C   0  0  0  0  0  0
   19.9571   14.6280   33.3012 N   0  0  0  0  0  0
   12.8801   18.1453   31.9638 H   0  0  0  0  0  0
   13.3922   17.5739   34.2970 H   0  0  0  0  0  0
   14.8322   16.3323   35.8604 H   0  0  0  0  0  0
   17.0621   14.7144   32.5664 H   0  0  0  0  0  0
   17.9592   15.2954   35.2531 H   0  0  0  0  0  0
   16.6759   14.9481   36.3450 H   0  0  0  0  0  0
   17.4967   10.6376   35.1161 H   0  0  0  0  0  0
   15.9833    9.0150   35.9883 H   0  0  0  0  0  0
   14.8451   13.7970   36.3800 H   0  0  0  0  0  0
   15.1436    8.3176   37.8691 H   0  0  0  0  0  0
   14.2952    6.3982   38.5021 H   0  0  0  0  0  0
   11.5787    7.7907   38.7492 H   0  0  0  0  0  0
   11.8624    6.1456   39.2048 H   0  0  0  0  0  0
   12.6284    4.4646   36.2995 H   0  0  0  0  0  0
   13.7513    7.0555   40.7807 H   0  0  0  0  0  0
   13.0804    8.6402   40.4658 H   0  0  0  0  0  0
   12.1749    5.4376   41.3141 H   0  0  0  0  0  0
   13.0677   17.9228   28.3082 H   0  0  0  0  0  0
   11.8608   18.0255   29.5839 H   0  0  0  0  0  0
   13.1300   19.2453   29.4682 H   0  0  0  0  0  0
   19.0526   12.3157   35.1905 H   0  0  0  0  0  0
   18.1910   12.1133   33.6653 H   0  0  0  0  0  0
  1  2  2  0  0  0
  1  4  1  0  0  0
  2  3  1  0  0  0
  2 32  1  0  0  0
  3  7  1  0  0  0
  3 37  1  0  0  0
  4  5  2  0  0  0
  4  6  1  0  0  0
  6 11  1  0  0  0
  6  7  2  0  0  0
  7  8  1  0  0  0
  8  9  2  0  0  0
  8 38  1  0  0  0
  9 10  1  0  0  0
  9 39  1  0  0  0
 10 11  2  0  0  0
 10 12  1  0  0  0
 11 40  1  0  0  0
 12 13  1  0  0  0
 12 41  1  0  0  0
 12 42  1  0  0  0
 13 14  1  0  0  0
 13 34  1  0  0  0
 14 19  1  0  0  0
 14 15  2  0  0  0
 15 16  1  0  0  0
 15 43  1  0  0  0
 16 17  2  0  0  0
 16 44  1  0  0  0
 17 18  1  0  0  0
 17 20  1  0  0  0
 18 19  2  0  0  0
 18 33  1  0  0  0
 19 45  1  0  0  0
 20 21  2  0  0  0
 20 22  1  0  0  0
 22 23  1  0  0  0
 22 46  1  0  0  0
 23 24  1  0  0  0
 23 25  1  0  0  0
 23 47  1  0  0  0
 24 28  1  0  0  0
 24 48  1  0  0  0
 24 49  1  0  0  0
 25 26  1  0  0  0
 25 27  2  0  0  0
 26 50  1  0  0  0
 28 29  1  0  0  0
 28 51  1  0  0  0
 28 52  1  0  0  0
 29 30  1  0  0  0
 29 31  2  0  0  0
 30 53  1  0  0  0
 32 54  1  0  0  0
 32 55  1  0  0  0
 32 56  1  0  0  0
 34 35  1  0  0  0
 34 57  1  0  0  0
 34 58  1  0  0  0
 35 36  3  0  0  0
M  END
> <s_m_entry_id>
41280

> <s_m_entry_name>
dock_pv.397

> <s_m_Source_Path>
/home/csk/Desktop/cluster/DUD-E-result/tysy

> <s_m_Source_File>
dock_pv.maegz

> <i_m_Source_File_Index>
397

> <chembl_id>
CHEMBL321527

> <chembl_pref_name>
None

> <i_lp_mmshare_version>
53161

> <r_lp_tautomer_probability>
0.116051

> <s_lp_Force_Field>
OPLS_2005

> <r_lp_Energy>
18.81754

> <b_lp_Chiralities_Consistent>
1

> <s_lp_Variant>
CHEMBL1952_lig219-2

> <s_i_glide_gridfile>
glide-grid_1syn

> <i_i_glide_lignum>
435

> <i_i_glide_rotatable_bonds>
13

> <r_i_docking_score>
-7.35857108705

> <r_i_glide_ligand_efficiency>
-0.204404752418055

> <r_i_glide_ligand_efficiency_sa>
-0.67492962100653

> <r_i_glide_ligand_efficiency_ln>
-1.60544140557836

> <r_i_glide_gscore>
-7.35857108705

> <r_i_glide_lipo>
-3.54723994311894

> <r_i_glide_hbond>
-0.262221318256491

> <r_i_glide_metal>
0

> <r_i_glide_rewards>
-0.797063726585178

> <r_i_glide_evdw>
-52.5281791687012

> <r_i_glide_ecoul>
-5.69315767288208

> <r_i_glide_erotb>
0.830434228490989

> <r_i_glide_esite>
-0.102097718213009

> <r_i_glide_emodel>
-78.9168198685495

> <r_i_glide_energy>
-58.2213368415833

> <r_i_glide_einternal>
9.06667900085449

> <i_i_glide_confnum>
54

> <i_i_glide_posenum>
245

> <r_i_glide_eff_state_penalty>
0

> <s_user_duplicate_titles>
CHEMBL1952_lig219,171103

> <i_f3d_flags>
0

> <s_m_subgroup_title>
dock_pv

> <s_m_subgroupid>
dock_pv

> <b_m_subgroup_collapsed>
1

$$$$
CHEMBL1952_lig6
                    3D
 Schrodinger Suite 2021-1.
 46 48  0  0  1  0            999 V2000
   14.6473   17.1540   31.7885 N   0  0  0  0  0  0
   14.6055   16.7112   30.4798 C   0  0  0  0  0  0
   15.3869   15.7676   30.0763 N   0  0  0  0  0  0
   15.4539   16.7146   32.8085 C   0  0  0  0  0  0
   16.3223   15.6256   32.3472 C   0  0  0  0  0  0
   16.2278   15.2395   31.0113 C   0  0  0  0  0  0
   17.1229   14.2335   30.7907 N   0  0  0  0  0  0
   17.7920   13.9853   31.9619 C   0  0  0  0  0  0
   17.3009   14.8141   32.9714 C   0  0  0  0  0  0
   17.7346   14.8087   34.4215 C   0  0  0  0  0  0
   16.7260   14.0663   35.2728 C   0  0  0  0  0  0
   15.3926   17.2320   33.9207 O   0  0  0  0  0  0
   13.7007   17.3233   29.5926 N   0  0  0  0  0  0
   16.8700   12.3551   35.5911 S   0  0  0  0  0  0
   15.3985   12.3208   36.5240 C   0  0  0  0  0  0
   14.8358   13.5953   36.5802 C   0  0  0  0  0  0
   15.5757   14.5525   35.8871 C   0  0  0  0  0  0
   14.9896   11.1289   37.2310 C   0  0  0  0  0  0
   15.7703   10.2049   37.4690 O   0  0  0  0  0  0
   13.6992   11.1480   37.6242 N   0  0  0  0  0  0
   13.0067   10.1936   38.5140 C   0  0  2  0  0  0
   13.3841   10.4048   40.0032 C   0  0  0  0  0  0
   13.1554    8.7133   38.0548 C   0  0  0  0  0  0
   12.6388    8.4216   36.6317 C   0  0  0  0  0  0
   13.3917    7.2622   35.9915 C   0  0  0  0  0  0
   12.9415    6.0414   36.4048 O   0  0  0  0  0  0
   14.3052    7.4280   35.1914 O   0  0  0  0  0  0
   13.3904   11.7350   40.3119 O   0  0  0  0  0  0
   13.5905    9.5038   40.7889 O   0  0  0  0  0  0
   14.0230   17.8986   32.0541 H   0  0  0  0  0  0
   17.2660   13.7624   29.9082 H   0  0  0  0  0  0
   18.5551   13.2178   31.9912 H   0  0  0  0  0  0
   17.8662   15.8273   34.7822 H   0  0  0  0  0  0
   18.7213   14.3529   34.5167 H   0  0  0  0  0  0
   13.8149   17.1339   28.6084 H   0  0  0  0  0  0
   13.4202   18.2773   29.7648 H   0  0  0  0  0  0
   13.9377   13.8456   37.1249 H   0  0  0  0  0  0
   15.2832   15.5908   35.8446 H   0  0  0  0  0  0
   13.1148   11.8681   37.2269 H   0  0  0  0  0  0
   11.9459   10.4399   38.4499 H   0  0  0  0  0  0
   12.5947    8.0684   38.7346 H   0  0  0  0  0  0
   14.1931    8.3893   38.1562 H   0  0  0  0  0  0
   12.7875    9.2834   35.9814 H   0  0  0  0  0  0
   11.5676    8.2203   36.6315 H   0  0  0  0  0  0
   13.3908    5.2954   35.9890 H   0  0  0  0  0  0
   13.2700   12.2701   39.5255 H   0  0  0  0  0  0
  1  2  1  0  0  0
  1  4  1  0  0  0
  1 30  1  0  0  0
  2  3  2  0  0  0
  2 13  1  0  0  0
  3  6  1  0  0  0
  4  5  1  0  0  0
  4 12  2  0  0  0
  5  6  2  0  0  0
  5  9  1  0  0  0
  6  7  1  0  0  0
  7  8  1  0  0  0
  7 31  1  0  0  0
  8  9  2  0  0  0
  8 32  1  0  0  0
  9 10  1  0  0  0
 10 11  1  0  0  0
 10 33  1  0  0  0
 10 34  1  0  0  0
 11 14  1  0  0  0
 11 17  2  0  0  0
 13 35  1  0  0  0
 13 36  1  0  0  0
 14 15  1  0  0  0
 15 16  2  0  0  0
 15 18  1  0  0  0
 16 17  1  0  0  0
 16 37  1  0  0  0
 17 38  1  0  0  0
 18 19  2  0  0  0
 18 20  1  0  0  0
 20 21  1  0  0  0
 20 39  1  0  0  0
 21 22  1  0  0  0
 21 23  1  0  0  0
 21 40  1  0  0  0
 22 28  1  0  0  0
 22 29  2  0  0  0
 23 24  1  0  0  0
 23 41  1  0  0  0
 23 42  1  0  0  0
 24 25  1  0  0  0
 24 43  1  0  0  0
 24 44  1  0  0  0
 25 26  1  0  0  0
 25 27  2  0  0  0
 26 45  1  0  0  0
 28 46  1  0  0  0
M  END
> <s_m_entry_id>
41282

> <s_m_entry_name>
dock_pv.399

> <s_m_Source_Path>
/home/csk/Desktop/cluster/DUD-E-result/tysy

> <s_m_Source_File>
dock_pv.maegz

> <i_m_Source_File_Index>
399

> <chembl_id>
CHEMBL2426245

> <chembl_pref_name>
None

> <i_lp_mmshare_version>
53161

> <r_lp_tautomer_probability>
1

> <s_lp_Force_Field>
OPLS_2005

> <r_lp_Energy>
12.215964

> <b_lp_Chiralities_Consistent>
1

> <s_lp_Variant>
CHEMBL1952_lig6-1

> <s_i_glide_gridfile>
glide-grid_1syn

> <i_i_glide_lignum>
7

> <i_i_glide_rotatable_bonds>
11

> <r_i_docking_score>
-7.35285073767379

> <r_i_glide_ligand_efficiency>
-0.253546577161165

> <r_i_glide_ligand_efficiency_sa>
-0.778975414232956

> <r_i_glide_ligand_efficiency_ln>
-1.68361636672013

> <r_i_glide_gscore>
-7.35285073767379

> <r_i_glide_lipo>
-2.27804591678525

> <r_i_glide_hbond>
-0.35172542462779

> <r_i_glide_metal>
0

> <r_i_glide_rewards>
-1.46216776696942

> <r_i_glide_evdw>
-48.3450317382812

> <r_i_glide_ecoul>
-12.3722133636475

> <r_i_glide_erotb>
1.01217196216984

> <r_i_glide_esite>
0

> <r_i_glide_emodel>
-86.8038761181583

> <r_i_glide_energy>
-60.7172451019287

> <r_i_glide_einternal>
4.36093235015869

> <i_i_glide_confnum>
106

> <i_i_glide_posenum>
7

> <r_i_glide_eff_state_penalty>
0

> <s_user_duplicate_titles>
CHEMBL1952_lig6

> <i_f3d_flags>
0

> <s_m_subgroup_title>
dock_pv

> <s_m_subgroupid>
dock_pv

> <b_m_subgroup_collapsed>
1

$$$$
CHEMBL1952_lig395
                    3D
 Schrodinger Suite 2021-1.
 58 62  0  0  1  0            999 V2000
   12.6915   12.4096   38.7553 S   0  0  0  0  0  0
   14.1937   17.0359   29.6357 C   0  0  0  0  0  0
   15.0156   16.0188   29.2764 N   0  0  0  0  0  0
   15.3883   16.2689   31.4591 C   0  0  0  0  0  0
   15.7498   15.5374   30.3593 C   0  0  0  0  0  0
   11.2603   12.4128   37.7143 N   0  0  0  0  0  0
   15.8890   16.0785   32.7596 C   0  0  0  0  0  0
   16.8436   15.0220   32.9267 C   0  0  0  0  0  0
   14.4452   17.1997   31.1040 C   0  0  0  0  0  0
   17.3228   14.6725   34.2066 N   0  0  0  0  0  0
   14.0336   12.6708   37.5985 C   0  0  0  0  0  0
    8.4783   13.0039   37.9612 N   0  0  0  0  0  0
   12.8565   11.0640   39.3178 O   0  0  0  0  0  0
   12.6159   13.5840   39.6343 O   0  0  0  0  0  0
   17.2377   14.2830   31.7862 C   0  0  0  0  0  0
   16.6930   14.5274   30.5133 C   0  0  0  0  0  0
   13.4377   17.6606   28.8986 O   0  0  0  0  0  0
   17.1625   13.2878   34.6768 C   0  0  0  0  0  0
   14.5923   11.5869   36.9207 C   0  0  0  0  0  0
   14.4804   13.9642   37.3441 C   0  0  0  0  0  0
   10.2723   11.3127   37.7361 C   0  0  0  0  0  0
   10.7236   13.6785   37.1744 C   0  0  0  0  0  0
   16.0538   13.1008   35.7178 C   0  0  0  0  0  0
   15.3476   16.9467   33.7558 C   0  0  0  0  0  0
   15.6067   11.8034   35.9898 C   0  0  0  0  0  0
   15.4886   14.1784   36.4096 C   0  0  0  0  0  0
    9.4655   14.0968   37.9649 C   0  0  0  0  0  0
    9.0156   11.7531   38.5213 C   0  0  0  0  0  0
   13.9363   18.0544   32.0828 C   0  0  0  0  0  0
   18.4191   15.4660   34.7500 C   0  0  0  0  0  0
   14.3940   17.9195   33.4032 C   0  0  0  0  0  0
   19.8140   14.9146   34.4134 C   0  0  0  0  0  0
   15.0717   15.6621   28.3344 H   0  0  0  0  0  0
    7.6482   13.2910   38.4613 H   0  0  0  0  0  0
   17.9610   13.4857   31.8859 H   0  0  0  0  0  0
   16.9924   13.9180   29.6730 H   0  0  0  0  0  0
   16.9891   12.6278   33.8301 H   0  0  0  0  0  0
   18.0791   12.9278   35.1374 H   0  0  0  0  0  0
   14.2371   10.5827   37.1033 H   0  0  0  0  0  0
   14.0625   14.8092   37.8716 H   0  0  0  0  0  0
   10.0274   11.0315   36.7105 H   0  0  0  0  0  0
   10.7270   10.4391   38.2044 H   0  0  0  0  0  0
   11.4959   14.4465   37.2585 H   0  0  0  0  0  0
   10.5088   13.5519   36.1130 H   0  0  0  0  0  0
   15.6657   16.8476   34.7839 H   0  0  0  0  0  0
   16.0328   10.9599   35.4617 H   0  0  0  0  0  0
   15.8296   15.1890   36.2442 H   0  0  0  0  0  0
    9.7146   14.2325   39.0199 H   0  0  0  0  0  0
    9.0352   15.0268   37.5914 H   0  0  0  0  0  0
    9.2894   12.0013   39.5485 H   0  0  0  0  0  0
    8.2507   10.9764   38.5539 H   0  0  0  0  0  0
   13.1989   18.8073   31.8423 H   0  0  0  0  0  0
   18.3512   16.4925   34.3899 H   0  0  0  0  0  0
   18.2618   15.5157   35.8268 H   0  0  0  0  0  0
   13.9965   18.5774   34.1653 H   0  0  0  0  0  0
   20.5813   15.4269   34.9963 H   0  0  0  0  0  0
   19.9151   13.8550   34.6495 H   0  0  0  0  0  0
   20.0421   15.0339   33.3516 H   0  0  0  0  0  0
  1  6  1  0  0  0
  1 11  1  0  0  0
  1 13  2  0  0  0
  1 14  2  0  0  0
  2  9  1  0  0  0
  2 17  2  0  0  0
  2  3  1  0  0  0
  3  5  1  0  0  0
  3 33  1  0  0  0
  4  7  1  0  0  0
  4  9  1  0  0  0
  4  5  2  0  0  0
  5 16  1  0  0  0
  6 21  1  0  0  0
  6 22  1  0  0  0
  7  8  2  0  0  0
  7 24  1  0  0  0
  8 10  1  0  0  0
  8 15  1  0  0  0
  9 29  2  0  0  0
 10 18  1  0  0  0
 10 30  1  0  0  0
 11 19  1  0  0  0
 11 20  2  0  0  0
 12 28  1  0  0  0
 12 27  1  0  0  0
 12 34  1  0  0  0
 15 16  2  0  0  0
 15 35  1  0  0  0
 16 36  1  0  0  0
 18 23  1  0  0  0
 18 37  1  0  0  0
 18 38  1  0  0  0
 19 25  2  0  0  0
 19 39  1  0  0  0
 20 26  1  0  0  0
 20 40  1  0  0  0
 21 28  1  0  0  0
 21 41  1  0  0  0
 21 42  1  0  0  0
 22 27  1  0  0  0
 22 43  1  0  0  0
 22 44  1  0  0  0
 23 25  1  0  0  0
 23 26  2  0  0  0
 24 31  2  0  0  0
 24 45  1  0  0  0
 25 46  1  0  0  0
 26 47  1  0  0  0
 27 48  1  0  0  0
 27 49  1  0  0  0
 28 50  1  0  0  0
 28 51  1  0  0  0
 29 31  1  0  0  0
 29 52  1  0  0  0
 30 32  1  0  0  0
 30 53  1  0  0  0
 30 54  1  0  0  0
 31 55  1  0  0  0
 32 56  1  0  0  0
 32 57  1  0  0  0
 32 58  1  0  0  0
M  END
> <s_m_entry_id>
41283

> <s_m_entry_name>
dock_pv.400

> <s_m_Source_Path>
/home/csk/Desktop/cluster/DUD-E-result/tysy

> <s_m_Source_File>
dock_pv.maegz

> <i_m_Source_File_Index>
400

> <chembl_id>
CHEMBL56992

> <chembl_pref_name>
None

> <i_lp_mmshare_version>
53161

> <r_lp_tautomer_probability>
1

> <s_lp_Force_Field>
OPLS_2005

> <r_lp_Energy>
59.132172

> <b_lp_Chiralities_Consistent>
1

> <s_lp_Variant>
CHEMBL1952_lig395-1

> <s_i_glide_gridfile>
glide-grid_1syn

> <i_i_glide_lignum>
779

> <i_i_glide_rotatable_bonds>
6

> <r_i_docking_score>
-7.34893441109145

> <r_i_glide_ligand_efficiency>
-0.229654200346608

> <r_i_glide_ligand_efficiency_sa>
-0.729106637595945

> <r_i_glide_ligand_efficiency_ln>
-1.64562673902954

> <r_i_glide_gscore>
-7.34893441109145

> <r_i_glide_lipo>
-4.16378942688369

> <r_i_glide_hbond>
0

> <r_i_glide_metal>
0

> <r_i_glide_rewards>
-0.803805673181845

> <r_i_glide_evdw>
-50.3958206176758

> <r_i_glide_ecoul>
-2.21961116790771

> <r_i_glide_erotb>
0.493842992969331

> <r_i_glide_esite>
-0.0224495979252982

> <r_i_glide_emodel>
-71.9640666278835

> <r_i_glide_energy>
-52.6154317855835

> <r_i_glide_einternal>
9.02821254730225

> <i_i_glide_confnum>
19

> <i_i_glide_posenum>
312

> <r_i_glide_eff_state_penalty>
0

> <s_user_duplicate_titles>
CHEMBL1952_lig395,CHEMBL1952_lig437

> <i_f3d_flags>
0

> <s_m_subgroup_title>
dock_pv

> <s_m_subgroupid>
dock_pv

> <b_m_subgroup_collapsed>
1

$$$$
CHEMBL1952_lig220
                    3D
 Schrodinger Suite 2021-1.
 61 63  0  0  1  0            999 V2000
   13.3802   15.7857   29.5911 N   0  0  0  0  0  0
   12.6520   16.6843   30.1329 C   0  0  0  0  0  0
   12.9920   17.4188   31.2415 N   0  0  0  0  0  0
   14.6501   15.4671   30.0801 C   0  0  0  0  0  0
   15.4453   14.6961   29.5476 O   0  0  0  0  0  0
   15.0259   16.1592   31.3804 C   0  0  0  0  0  0
   14.1794   17.1411   31.9081 C   0  0  0  0  0  0
   14.4849   17.7851   33.0931 C   0  0  0  0  0  0
   15.6387   17.4258   33.7763 C   0  0  0  0  0  0
   16.5016   16.4342   33.2749 C   0  0  0  0  0  0
   16.1908   15.8103   32.0635 C   0  0  0  0  0  0
   17.8122   16.0414   33.9647 C   0  0  0  0  0  0
   17.9264   14.6310   34.3755 N   0  0  0  0  0  0
   16.9143   14.0165   35.1639 C   0  0  0  0  0  0
   15.9245   14.7583   35.8131 C   0  0  0  0  0  0
   14.9430   14.1597   36.5864 C   0  0  0  0  0  0
   14.9282   12.7740   36.7816 C   0  0  0  0  0  0
   15.9139   12.0068   36.1311 C   0  0  0  0  0  0
   16.8811   12.6247   35.3298 C   0  0  0  0  0  0
   13.9027   12.1487   37.7032 C   0  0  0  0  0  0
   13.5810   10.9638   37.6111 O   0  0  0  0  0  0
   13.3906   12.9675   38.6470 N   0  0  0  0  0  0
   12.4130   12.6713   39.7096 C   0  0  1  0  0  0
   11.0349   12.2285   39.1403 C   0  0  0  0  0  0
   12.9484   11.7100   40.7965 C   0  0  0  0  0  0
   13.3236   10.5110   40.2641 O   0  0  0  0  0  0
   12.9913   12.0085   41.9728 O   0  0  0  0  0  0
   10.2525   13.3536   38.4198 C   0  0  0  0  0  0
    8.9393   12.8492   37.8121 C   0  0  0  0  0  0
    8.0011   13.8280   37.6544 O   0  0  0  0  0  0
    8.7475   11.6807   37.4873 O   0  0  0  0  0  0
   11.2985   16.9279   29.5512 C   0  0  0  0  0  0
   15.9690   10.6614   36.2756 F   0  0  0  0  0  0
   19.3132   14.2381   34.5748 C   0  0  0  0  0  0
   20.1920   14.2284   33.3238 C   0  0  0  0  0  0
   19.6052   14.2281   32.1308 N   0  0  0  0  0  0
   21.4157   14.2280   33.4455 O   0  0  0  0  0  0
   12.3654   18.1196   31.6017 H   0  0  0  0  0  0
   13.8236   18.5371   33.5003 H   0  0  0  0  0  0
   15.7920   17.9254   34.7160 H   0  0  0  0  0  0
   16.8520   15.0518   31.6651 H   0  0  0  0  0  0
   18.5487   16.2374   33.1915 H   0  0  0  0  0  0
   18.1920   16.6361   34.7898 H   0  0  0  0  0  0
   15.9028   15.8280   35.7655 H   0  0  0  0  0  0
   14.2154   14.8101   37.0495 H   0  0  0  0  0  0
   17.6164   12.0045   34.8386 H   0  0  0  0  0  0
   13.7597   13.9052   38.6716 H   0  0  0  0  0  0
   12.2602   13.6209   40.2256 H   0  0  0  0  0  0
   11.1606   11.3808   38.4638 H   0  0  0  0  0  0
   10.4029   11.8572   39.9498 H   0  0  0  0  0  0
   13.2941   10.5212   39.2966 H   0  0  0  0  0  0
   10.0330   14.1560   39.1243 H   0  0  0  0  0  0
   10.8527   13.7835   37.6169 H   0  0  0  0  0  0
    8.2318   14.7051   37.9853 H   0  0  0  0  0  0
   11.3318   16.6279   28.5233 H   0  0  0  0  0  0
   10.5364   16.2957   29.9909 H   0  0  0  0  0  0
   10.9937   17.9739   29.5971 H   0  0  0  0  0  0
   19.8411   14.9556   35.1910 H   0  0  0  0  0  0
   19.4563   13.2759   35.0659 H   0  0  0  0  0  0
   20.1888   14.0783   31.3202 H   0  0  0  0  0  0
   18.6063   14.1384   32.0608 H   0  0  0  0  0  0
  1  2  2  0  0  0
  1  4  1  0  0  0
  2  3  1  0  0  0
  2 32  1  0  0  0
  3  7  1  0  0  0
  3 38  1  0  0  0
  4  5  2  0  0  0
  4  6  1  0  0  0
  6 11  1  0  0  0
  6  7  2  0  0  0
  7  8  1  0  0  0
  8  9  2  0  0  0
  8 39  1  0  0  0
  9 10  1  0  0  0
  9 40  1  0  0  0
 10 11  2  0  0  0
 10 12  1  0  0  0
 11 41  1  0  0  0
 12 13  1  0  0  0
 12 42  1  0  0  0
 12 43  1  0  0  0
 13 14  1  0  0  0
 13 34  1  0  0  0
 14 19  1  0  0  0
 14 15  2  0  0  0
 15 16  1  0  0  0
 15 44  1  0  0  0
 16 17  2  0  0  0
 16 45  1  0  0  0
 17 18  1  0  0  0
 17 20  1  0  0  0
 18 19  2  0  0  0
 18 33  1  0  0  0
 19 46  1  0  0  0
 20 21  2  0  0  0
 20 22  1  0  0  0
 22 23  1  0  0  0
 22 47  1  0  0  0
 23 24  1  0  0  0
 23 25  1  0  0  0
 23 48  1  0  0  0
 24 28  1  0  0  0
 24 49  1  0  0  0
 24 50  1  0  0  0
 25 26  1  0  0  0
 25 27  2  0  0  0
 26 51  1  0  0  0
 28 29  1  0  0  0
 28 52  1  0  0  0
 28 53  1  0  0  0
 29 30  1  0  0  0
 29 31  2  0  0  0
 30 54  1  0  0  0
 32 55  1  0  0  0
 32 56  1  0  0  0
 32 57  1  0  0  0
 34 35  1  0  0  0
 34 58  1  0  0  0
 34 59  1  0  0  0
 35 36  1  0  0  0
 35 37  2  0  0  0
 36 60  1  0  0  0
 36 61  1  0  0  0
M  END
> <s_m_entry_id>
41288

> <s_m_entry_name>
dock_pv.405

> <s_m_Source_Path>
/home/csk/Desktop/cluster/DUD-E-result/tysy

> <s_m_Source_File>
dock_pv.maegz

> <i_m_Source_File_Index>
405

> <chembl_id>
CHEMBL319629

> <chembl_pref_name>
None

> <i_lp_mmshare_version>
53161

> <r_lp_tautomer_probability>
0.116051

> <s_lp_Force_Field>
OPLS_2005

> <r_lp_Energy>
16.100981

> <b_lp_Chiralities_Consistent>
1

> <s_lp_Variant>
CHEMBL1952_lig220-2

> <s_i_glide_gridfile>
glide-grid_1syn

> <i_i_glide_lignum>
437

> <i_i_glide_rotatable_bonds>
14

> <r_i_docking_score>
-7.33743282783416

> <r_i_glide_ligand_efficiency>
-0.198308995346869

> <r_i_glide_ligand_efficiency_sa>
-0.660809566877417

> <r_i_glide_ligand_efficiency_ln>
-1.59131716652626

> <r_i_glide_gscore>
-7.33743282783416

> <r_i_glide_lipo>
-3.7534273770887

> <r_i_glide_hbond>
-0.274362613259774

> <r_i_glide_metal>
0

> <r_i_glide_rewards>
-0.735669950733129

> <r_i_glide_evdw>
-39.2731323242188

> <r_i_glide_ecoul>
-8.4301872253418

> <r_i_glide_erotb>
0.855544293271368

> <r_i_glide_esite>
-0.201332480011717

> <r_i_glide_emodel>
-72.8188719546802

> <r_i_glide_energy>
-47.7033195495605

> <r_i_glide_einternal>
7.86149215698242

> <i_i_glide_confnum>
41

> <i_i_glide_posenum>
51

> <r_i_glide_eff_state_penalty>
0

> <s_user_duplicate_titles>
CHEMBL1952_lig220,CHEMBL1952_lig220

> <i_f3d_flags>
0

> <s_m_subgroup_title>
dock_pv

> <s_m_subgroupid>
dock_pv

> <b_m_subgroup_collapsed>
1

$$$$
CHEMBL1952_lig488
                    3D
 Schrodinger Suite 2021-1.
 33 36  0  0  1  0            999 V2000
   12.9924   18.6273   33.0446 C   0  0  0  0  0  0
   13.7125   17.6319   33.7299 C   0  0  0  0  0  0
   14.4337   16.6300   33.0439 C   0  0  0  0  0  0
   14.4177   16.6163   31.6108 C   0  0  0  0  0  0
   15.0793   15.7133   30.7300 C   0  0  0  0  0  0
   14.9539   15.8744   29.3380 C   0  0  0  0  0  0
   14.1923   16.9209   28.7911 C   0  0  0  0  0  0
   12.9919   18.6080   31.6546 C   0  0  0  0  0  0
   13.6762   17.6315   30.9915 C   0  0  0  0  0  0
   13.5473   17.8149   29.6414 C   0  0  0  0  0  0
   12.7156   19.0282   29.4813 C   0  0  0  0  0  0
   12.3915   19.4506   30.7569 O   0  0  0  0  0  0
   12.3840   19.6238   28.4589 O   0  0  0  0  0  0
   15.1509   15.6888   33.7524 O   0  0  0  0  0  0
   16.4911   15.8778   33.8990 C   0  0  0  0  0  0
   17.2230   14.6650   34.3639 C   0  0  0  0  0  0
   17.0689   16.9231   33.5869 O   0  0  0  0  0  0
   18.5839   14.5465   34.0576 C   0  0  0  0  0  0
   19.2796   13.3912   34.3908 C   0  0  0  0  0  0
   18.6263   12.3290   35.0136 C   0  0  0  0  0  0
   17.2788   12.4459   35.3609 C   0  0  0  0  0  0
   16.5920   13.6282   35.0690 C   0  0  0  0  0  0
   16.5922   11.3274   35.9910 C   0  0  0  0  0  0
   16.0475   10.4361   36.4899 N   0  0  0  0  0  0
   12.4535   19.3873   33.5910 H   0  0  0  0  0  0
   13.7264   17.6502   34.8090 H   0  0  0  0  0  0
   15.6801   14.9141   31.1372 H   0  0  0  0  0  0
   15.4559   15.1819   28.6753 H   0  0  0  0  0  0
   14.1163   17.0287   27.7187 H   0  0  0  0  0  0
   19.1063   15.3305   33.5260 H   0  0  0  0  0  0
   20.3231   13.3105   34.1277 H   0  0  0  0  0  0
   19.1846   11.4256   35.2229 H   0  0  0  0  0  0
   15.5445   13.7137   35.3278 H   0  0  0  0  0  0
  1  2  2  0  0  0
  1  8  1  0  0  0
  1 25  1  0  0  0
  2  3  1  0  0  0
  2 26  1  0  0  0
  3  4  2  0  0  0
  3 14  1  0  0  0
  4  9  1  0  0  0
  4  5  1  0  0  0
  5  6  2  0  0  0
  5 27  1  0  0  0
  6  7  1  0  0  0
  6 28  1  0  0  0
  7 10  2  0  0  0
  7 29  1  0  0  0
  8  9  2  0  0  0
  8 12  1  0  0  0
  9 10  1  0  0  0
 10 11  1  0  0  0
 11 12  1  0  0  0
 11 13  2  0  0  0
 14 15  1  0  0  0
 15 16  1  0  0  0
 15 17  2  0  0  0
 16 18  2  0  0  0
 16 22  1  0  0  0
 18 19  1  0  0  0
 18 30  1  0  0  0
 19 20  2  0  0  0
 19 31  1  0  0  0
 20 21  1  0  0  0
 20 32  1  0  0  0
 21 22  2  0  0  0
 21 23  1  0  0  0
 22 33  1  0  0  0
 23 24  3  0  0  0
M  END
> <s_m_entry_id>
41290

> <s_m_entry_name>
dock_pv.407

> <s_m_Source_Path>
/home/csk/Desktop/cluster/DUD-E-result/tysy

> <s_m_Source_File>
dock_pv.maegz

> <i_m_Source_File_Index>
407

> <chembl_id>
CHEMBL3088233

> <chembl_pref_name>
None

> <i_lp_mmshare_version>
53161

> <r_lp_tautomer_probability>
1

> <s_lp_Force_Field>
OPLS_2005

> <r_lp_Energy>
48.152087

> <b_lp_Chiralities_Consistent>
1

> <s_lp_Variant>
CHEMBL1952_lig488-1

> <s_i_glide_gridfile>
glide-grid_1syn

> <i_i_glide_lignum>
918

> <i_i_glide_rotatable_bonds>
3

> <r_i_docking_score>
-7.33505761698745

> <r_i_glide_ligand_efficiency>
-0.305627400707811

> <r_i_glide_ligand_efficiency_sa>
-0.881581973756115

> <r_i_glide_ligand_efficiency_ln>
-1.75561587160704

> <r_i_glide_gscore>
-7.33505761698745

> <r_i_glide_lipo>
-2.97873399900655

> <r_i_glide_hbond>
0

> <r_i_glide_metal>
0

> <r_i_glide_rewards>
-2.3245100653854

> <r_i_glide_evdw>
-42.1830978393555

> <r_i_glide_ecoul>
-3.22688341140747

> <r_i_glide_erotb>
0.561373851083392

> <r_i_glide_esite>
0

> <r_i_glide_emodel>
-64.9159222851192

> <r_i_glide_energy>
-45.4099812507629

> <r_i_glide_einternal>
1.83819961547852

> <i_i_glide_confnum>
8

> <i_i_glide_posenum>
95

> <r_i_glide_eff_state_penalty>
0

> <s_user_duplicate_titles>
CHEMBL1952_lig488

> <i_f3d_flags>
0

> <s_m_subgroup_title>
dock_pv

> <s_m_subgroupid>
dock_pv

> <b_m_subgroup_collapsed>
1

$$$$
CHEMBL1952_lig328 
                    3D
 Schrodinger Suite 2021-1.
 51 54  0  0  1  0            999 V2000
   14.0501   17.7675   31.8577 N   0  0  0  0  0  0
   13.6469   17.3886   30.5901 C   0  0  0  0  0  0
   14.2727   16.4643   29.9439 N   0  0  0  0  0  0
   15.1010   17.2829   32.5948 C   0  0  0  0  0  0
   15.8008   16.2291   31.8566 C   0  0  0  0  0  0
   15.3369   15.8994   30.5826 C   0  0  0  0  0  0
   16.1358   14.9189   30.0702 N   0  0  0  0  0  0
   17.1012   14.6276   31.0013 C   0  0  0  0  0  0
   16.9304   15.4265   32.1356 C   0  0  0  0  0  0
   15.3647   17.7433   33.7029 O   0  0  0  0  0  0
   12.5341   18.0333   30.0211 N   0  0  0  0  0  0
   17.7972   15.4188   33.3814 C   0  0  0  0  0  0
   17.3245   14.3593   34.3634 C   0  0  0  0  0  0
   17.9212   13.0985   34.3842 C   0  0  0  0  0  0
   17.3924   12.0953   35.1910 C   0  0  0  0  0  0
   16.2547   12.3311   35.9805 C   0  0  0  0  0  0
   15.7030   13.6241   35.9892 C   0  0  0  0  0  0
   16.2355   14.6281   35.1904 C   0  0  0  0  0  0
   15.6557   11.2001   36.7945 C   0  0  0  0  0  0
   16.1593   10.0741   36.7639 O   0  0  0  0  0  0
   14.5929   11.5344   37.5650 N   0  0  0  0  0  0
   13.9065   10.7928   38.5516 C   0  0  0  0  0  0
   13.8901    9.3885   38.5240 C   0  0  0  0  0  0
   13.2503    8.6555   39.5188 C   0  0  0  0  0  0
   12.6012    9.3087   40.5728 C   0  0  0  0  0  0
   12.5963   10.7010   40.5914 C   0  0  0  0  0  0
   13.2175   11.4707   39.5936 C   0  0  0  0  0  0
   13.1420   12.9842   39.7335 C   0  0  0  0  0  0
   13.2644   13.6982   38.5799 O   0  0  0  0  0  0
   12.9408   13.5333   40.8169 O   0  0  0  0  0  0
   11.9568    8.6696   41.6128 O   0  0  0  0  0  0
   11.9280    7.2451   41.6401 C   0  0  0  0  0  0
   13.5378   18.5049   32.3158 H   0  0  0  0  0  0
   16.0258   14.4878   29.1633 H   0  0  0  0  0  0
   17.8442   13.8697   30.7909 H   0  0  0  0  0  0
   12.3476   17.9088   29.0380 H   0  0  0  0  0  0
   12.2513   18.9465   30.3520 H   0  0  0  0  0  0
   17.7913   16.3932   33.8743 H   0  0  0  0  0  0
   18.8410   15.2364   33.1224 H   0  0  0  0  0  0
   18.7683   12.8809   33.7466 H   0  0  0  0  0  0
   17.8596   11.1185   35.1675 H   0  0  0  0  0  0
   14.8383   13.8797   36.5805 H   0  0  0  0  0  0
   15.7706   15.6036   35.1824 H   0  0  0  0  0  0
   14.3317   12.5092   37.5484 H   0  0  0  0  0  0
   14.3655    8.8383   37.7276 H   0  0  0  0  0  0
   13.2681    7.5790   39.4523 H   0  0  0  0  0  0
   12.0872   11.1854   41.4117 H   0  0  0  0  0  0
   13.1733   14.6352   38.7632 H   0  0  0  0  0  0
   11.4128    6.9119   42.5398 H   0  0  0  0  0  0
   12.9310    6.8203   41.6616 H   0  0  0  0  0  0
   11.3862    6.8437   40.7827 H   0  0  0  0  0  0
  1  2  1  0  0  0
  1  4  1  0  0  0
  1 33  1  0  0  0
  2  3  2  0  0  0
  2 11  1  0  0  0
  3  6  1  0  0  0
  4  5  1  0  0  0
  4 10  2  0  0  0
  5  6  2  0  0  0
  5  9  1  0  0  0
  6  7  1  0  0  0
  7  8  1  0  0  0
  7 34  1  0  0  0
  8  9  2  0  0  0
  8 35  1  0  0  0
  9 12  1  0  0  0
 11 36  1  0  0  0
 11 37  1  0  0  0
 12 13  1  0  0  0
 12 38  1  0  0  0
 12 39  1  0  0  0
 13 14  2  0  0  0
 13 18  1  0  0  0
 14 15  1  0  0  0
 14 40  1  0  0  0
 15 16  2  0  0  0
 15 41  1  0  0  0
 16 17  1  0  0  0
 16 19  1  0  0  0
 17 18  2  0  0  0
 17 42  1  0  0  0
 18 43  1  0  0  0
 19 20  2  0  0  0
 19 21  1  0  0  0
 21 22  1  0  0  0
 21 44  1  0  0  0
 22 23  2  0  0  0
 22 27  1  0  0  0
 23 24  1  0  0  0
 23 45  1  0  0  0
 24 25  2  0  0  0
 24 46  1  0  0  0
 25 26  1  0  0  0
 25 31  1  0  0  0
 26 27  2  0  0  0
 26 47  1  0  0  0
 27 28  1  0  0  0
 28 29  1  0  0  0
 28 30  2  0  0  0
 29 48  1  0  0  0
 31 32  1  0  0  0
 32 49  1  0  0  0
 32 50  1  0  0  0
 32 51  1  0  0  0
M  END
> <s_m_entry_id>
41291

> <s_m_entry_name>
dock_pv.408

> <s_m_Source_Path>
/home/csk/Desktop/cluster/DUD-E-result/tysy

> <s_m_Source_File>
dock_pv.maegz

> <i_m_Source_File_Index>
408

> <chembl_id>
CHEMBL4458803

> <chembl_pref_name>
None

> <i_lp_mmshare_version>
53161

> <r_lp_tautomer_probability>
1

> <s_lp_Force_Field>
OPLS_2005

> <r_lp_Energy>
38.174173

> <b_lp_Chiralities_Consistent>
1

> <s_lp_Variant>
CHEMBL1952_lig328 -1

> <s_i_glide_gridfile>
glide-grid_1syn

> <i_i_glide_lignum>
603

> <i_i_glide_rotatable_bonds>
8

> <r_i_docking_score>
-7.3316765501931

> <r_i_glide_ligand_efficiency>
-0.229114892193534

> <r_i_glide_ligand_efficiency_sa>
-0.727394440938875

> <r_i_glide_ligand_efficiency_ln>
-1.64176223354288

> <r_i_glide_gscore>
-7.3316765501931

> <r_i_glide_lipo>
-2.71266077934646

> <r_i_glide_hbond>
-0.0517027893013558

> <r_i_glide_metal>
0

> <r_i_glide_rewards>
-1.37995534455355

> <r_i_glide_evdw>
-53.5462799072266

> <r_i_glide_ecoul>
-7.5347785949707

> <r_i_glide_erotb>
0.635835799479761

> <r_i_glide_esite>
-0.0156626518645622

> <r_i_glide_emodel>
-85.0810245655812

> <r_i_glide_energy>
-61.0810585021973

> <r_i_glide_einternal>
6.16969871520996

> <i_i_glide_confnum>
6

> <i_i_glide_posenum>
292

> <r_i_glide_eff_state_penalty>
0

> <s_user_duplicate_titles>
CHEMBL1952_lig328 

> <i_f3d_flags>
0

> <s_m_subgroup_title>
dock_pv

> <s_m_subgroupid>
dock_pv

> <b_m_subgroup_collapsed>
1

$$$$
CHEMBL1952_lig207
                    3D
 Schrodinger Suite 2021-1.
 59 61  0  0  1  0            999 V2000
   13.4730   18.1415   31.4425 N   0  0  0  0  0  0
   13.3481   17.4267   30.2845 C   0  0  0  0  0  0
   14.1589   16.4708   29.9990 N   0  0  0  0  0  0
   14.3999   17.9672   32.4112 C   0  0  0  0  0  0
   14.3996   18.6280   33.4421 O   0  0  0  0  0  0
   15.3785   16.8723   32.0826 C   0  0  0  0  0  0
   15.1885   16.1445   30.9040 C   0  0  0  0  0  0
   16.0312   15.0662   30.6266 C   0  0  0  0  0  0
   16.9921   14.6711   31.5678 C   0  0  0  0  0  0
   17.1442   15.3894   32.7638 C   0  0  0  0  0  0
   16.3950   16.5495   32.9754 C   0  0  0  0  0  0
   18.0633   14.8987   33.8803 C   0  0  0  0  0  0
   17.7083   13.5641   34.4147 N   0  0  0  0  0  0
   16.5917   13.4300   35.3036 C   0  0  0  0  0  0
   16.5090   12.4362   36.2905 C   0  0  0  0  0  0
   15.3607   12.2545   37.0611 C   0  0  0  0  0  0
   14.2334   13.0706   36.8823 C   0  0  0  0  0  0
   14.3088   14.0840   35.9217 C   0  0  0  0  0  0
   15.4721   14.2648   35.1913 C   0  0  0  0  0  0
   12.9916   12.8959   37.7215 C   0  0  0  0  0  0
   12.2137   13.8282   37.9101 O   0  0  0  0  0  0
   12.8278   11.6932   38.3001 N   0  0  0  0  0  0
   11.8125   11.3518   39.3096 C   0  0  1  0  0  0
   12.0422   12.1897   40.6049 C   0  0  0  0  0  0
   10.3598   11.4324   38.7822 C   0  0  0  0  0  0
   10.2315   10.7037   37.6372 O   0  0  0  0  0  0
    9.4624   12.0298   39.3387 O   0  0  0  0  0  0
   13.5061   12.1904   41.0954 C   0  0  0  0  0  0
   13.6679   12.6849   42.5272 C   0  0  0  0  0  0
   14.5919   11.9451   43.1910 O   0  0  0  0  0  0
   13.0315   13.6113   43.0264 O   0  0  0  0  0  0
   18.8496   12.6275   34.3780 C   0  0  0  0  0  0
   18.5959   11.1713   34.3912 C   0  0  0  0  0  0
   18.5834    9.9505   34.3910 C   0  0  0  0  0  0
   13.2494   14.8679   35.6022 F   0  0  0  0  0  0
   12.2146   17.7863   29.3536 C   0  0  0  0  0  0
   12.8175   18.8804   31.6375 H   0  0  0  0  0  0
   15.8965   14.5005   29.7166 H   0  0  0  0  0  0
   17.5892   13.7869   31.3886 H   0  0  0  0  0  0
   16.5118   17.1109   33.8931 H   0  0  0  0  0  0
   19.0830   14.9204   33.4906 H   0  0  0  0  0  0
   18.0653   15.6112   34.7072 H   0  0  0  0  0  0
   17.3422   11.7898   36.5032 H   0  0  0  0  0  0
   15.3806   11.4786   37.8120 H   0  0  0  0  0  0
   15.3943   15.0242   34.4535 H   0  0  0  0  0  0
   13.4305   10.9396   38.0104 H   0  0  0  0  0  0
   11.9777   10.3031   39.5594 H   0  0  0  0  0  0
   11.7414   13.2262   40.4373 H   0  0  0  0  0  0
   11.3927   11.8224   41.3952 H   0  0  0  0  0  0
    9.3373   10.7675   37.2966 H   0  0  0  0  0  0
   13.8964   11.1734   41.0349 H   0  0  0  0  0  0
   14.1334   12.8059   40.4505 H   0  0  0  0  0  0
   14.6973   12.1715   44.1272 H   0  0  0  0  0  0
   19.3922   12.7838   33.4458 H   0  0  0  0  0  0
   19.5378   12.8439   35.1912 H   0  0  0  0  0  0
   18.6108    8.8862   34.3666 H   0  0  0  0  0  0
   12.5960   18.1036   28.3854 H   0  0  0  0  0  0
   11.5577   16.9311   29.1968 H   0  0  0  0  0  0
   11.6027   18.6012   29.7425 H   0  0  0  0  0  0
  1  2  1  0  0  0
  1  4  1  0  0  0
  1 37  1  0  0  0
  2  3  2  0  0  0
  2 36  1  0  0  0
  3  7  1  0  0  0
  4  6  1  0  0  0
  4  5  2  0  0  0
  6 11  1  0  0  0
  6  7  2  0  0  0
  7  8  1  0  0  0
  8  9  2  0  0  0
  8 38  1  0  0  0
  9 10  1  0  0  0
  9 39  1  0  0  0
 10 11  2  0  0  0
 10 12  1  0  0  0
 11 40  1  0  0  0
 12 13  1  0  0  0
 12 41  1  0  0  0
 12 42  1  0  0  0
 13 14  1  0  0  0
 13 32  1  0  0  0
 14 19  1  0  0  0
 14 15  2  0  0  0
 15 16  1  0  0  0
 15 43  1  0  0  0
 16 17  2  0  0  0
 16 44  1  0  0  0
 17 18  1  0  0  0
 17 20  1  0  0  0
 18 19  2  0  0  0
 18 35  1  0  0  0
 19 45  1  0  0  0
 20 21  2  0  0  0
 20 22  1  0  0  0
 22 23  1  0  0  0
 22 46  1  0  0  0
 23 24  1  0  0  0
 23 25  1  0  0  0
 23 47  1  0  0  0
 24 28  1  0  0  0
 24 48  1  0  0  0
 24 49  1  0  0  0
 25 26  1  0  0  0
 25 27  2  0  0  0
 26 50  1  0  0  0
 28 29  1  0  0  0
 28 51  1  0  0  0
 28 52  1  0  0  0
 29 30  1  0  0  0
 29 31  2  0  0  0
 30 53  1  0  0  0
 32 33  1  0  0  0
 32 54  1  0  0  0
 32 55  1  0  0  0
 33 34  3  0  0  0
 34 56  1  0  0  0
 36 57  1  0  0  0
 36 58  1  0  0  0
 36 59  1  0  0  0
M  END
> <s_m_entry_id>
41292

> <s_m_entry_name>
dock_pv.409

> <s_m_Source_Path>
/home/csk/Desktop/cluster/DUD-E-result/tysy

> <s_m_Source_File>
dock_pv.maegz

> <i_m_Source_File_Index>
409

> <chembl_id>
CHEMBL169981

> <chembl_pref_name>
None

> <i_lp_mmshare_version>
53161

> <r_lp_tautomer_probability>
0.883938

> <s_lp_Force_Field>
OPLS_2005

> <r_lp_Energy>
21.279297

> <b_lp_Chiralities_Consistent>
1

> <s_lp_Variant>
CHEMBL1952_lig207-1

> <s_i_glide_gridfile>
glide-grid_1syn

> <i_i_glide_lignum>
410

> <i_i_glide_rotatable_bonds>
14

> <r_i_docking_score>
-7.32919007957766

> <r_i_glide_ligand_efficiency>
-0.203588613321602

> <r_i_glide_ligand_efficiency_sa>
-0.672234789088279

> <r_i_glide_ligand_efficiency_ln>
-1.59903126353098

> <r_i_glide_gscore>
-7.32919007957766

> <r_i_glide_lipo>
-3.27180865424169

> <r_i_glide_hbond>
-0.0305271010434248

> <r_i_glide_metal>
0

> <r_i_glide_rewards>
-1.01066929865026

> <r_i_glide_evdw>
-54.4436264038086

> <r_i_glide_ecoul>
-8.58887767791748

> <r_i_glide_erotb>
1.00017194402705

> <r_i_glide_esite>
-0.00584399779127927

> <r_i_glide_emodel>
-90.5747599981618

> <r_i_glide_energy>
-63.0325040817261

> <r_i_glide_einternal>
4.6638035774231

> <i_i_glide_confnum>
8

> <i_i_glide_posenum>
117

> <r_i_glide_eff_state_penalty>
0

> <s_user_duplicate_titles>
CHEMBL1952_lig207,283618

> <i_f3d_flags>
0

> <s_m_subgroup_title>
dock_pv

> <s_m_subgroupid>
dock_pv

> <b_m_subgroup_collapsed>
1

$$$$
CHEMBL1952_lig157
                    3D
 Schrodinger Suite 2021-1.
 39 41  0  0  1  0            999 V2000
   18.7366   13.2651   34.7823 N   0  0  0  0  0  0
   18.3990   11.9901   35.1909 C   0  0  0  0  0  0
   17.2158   11.7313   35.6330 N   0  0  0  0  0  0
   17.9546   14.3935   34.7793 C   0  0  0  0  0  0
   16.5912   14.0786   35.2322 C   0  0  0  0  0  0
   16.3419   12.7775   35.6585 C   0  0  0  0  0  0
   15.0661   12.7180   36.1291 N   0  0  0  0  0  0
   14.4555   13.9358   35.9525 C   0  0  0  0  0  0
   15.3651   14.7953   35.3156 C   0  0  0  0  0  0
   13.0186   14.1303   36.3850 C   0  0  0  0  0  0
   14.9919   16.4556   34.7909 S   0  0  0  0  0  0
   19.3921   10.9932   35.1461 N   0  0  0  0  0  0
   18.4067   15.4668   34.3911 O   0  0  0  0  0  0
   14.9549   16.4041   33.0030 C   0  0  0  0  0  0
   15.7523   15.4935   32.3195 C   0  0  0  0  0  0
   15.8000   15.4278   30.9276 C   0  0  0  0  0  0
   14.9961   16.3061   30.2028 C   0  0  0  0  0  0
   14.1919   17.2391   30.8634 C   0  0  0  0  0  0
   14.1655   17.3068   32.2709 C   0  0  0  0  0  0
   13.3915   18.2113   32.9754 O   0  0  0  0  0  0
   12.6864   19.2298   32.2720 C   0  0  0  0  0  0
   16.6095   14.5341   30.2492 O   0  0  0  0  0  0
   17.5129   13.7242   31.0152 C   0  0  0  0  0  0
   19.6648   13.4003   34.4106 H   0  0  0  0  0  0
   14.6379   11.8946   36.5229 H   0  0  0  0  0  0
   12.5812   15.0274   35.9459 H   0  0  0  0  0  0
   12.3818   13.2981   36.0844 H   0  0  0  0  0  0
   12.9337   14.2270   37.4673 H   0  0  0  0  0  0
   19.1073   10.0320   35.2473 H   0  0  0  0  0  0
   20.1310   11.0889   34.4557 H   0  0  0  0  0  0
   16.3458   14.8089   32.8736 H   0  0  0  0  0  0
   15.0077   16.2741   29.1227 H   0  0  0  0  0  0
   13.5976   17.9091   30.2614 H   0  0  0  0  0  0
   12.1295   19.8369   32.9842 H   0  0  0  0  0  0
   13.3713   19.8869   31.7341 H   0  0  0  0  0  0
   11.9616   18.8146   31.5705 H   0  0  0  0  0  0
   18.1218   13.0843   30.3910 H   0  0  0  0  0  0
   18.2078   14.3402   31.5892 H   0  0  0  0  0  0
   16.9860   13.0549   31.6962 H   0  0  0  0  0  0
  1  2  1  0  0  0
  1  4  1  0  0  0
  1 24  1  0  0  0
  2 12  1  0  0  0
  2  3  2  0  0  0
  3  6  1  0  0  0
  4 13  2  0  0  0
  4  5  1  0  0  0
  5  9  1  0  0  0
  5  6  2  0  0  0
  6  7  1  0  0  0
  7  8  1  0  0  0
  7 25  1  0  0  0
  8  9  2  0  0  0
  8 10  1  0  0  0
  9 11  1  0  0  0
 10 26  1  0  0  0
 10 27  1  0  0  0
 10 28  1  0  0  0
 11 14  1  0  0  0
 12 29  1  0  0  0
 12 30  1  0  0  0
 14 15  2  0  0  0
 14 19  1  0  0  0
 15 16  1  0  0  0
 15 31  1  0  0  0
 16 17  2  0  0  0
 16 22  1  0  0  0
 17 18  1  0  0  0
 17 32  1  0  0  0
 18 19  2  0  0  0
 18 33  1  0  0  0
 19 20  1  0  0  0
 20 21  1  0  0  0
 21 34  1  0  0  0
 21 35  1  0  0  0
 21 36  1  0  0  0
 22 23  1  0  0  0
 23 37  1  0  0  0
 23 38  1  0  0  0
 23 39  1  0  0  0
M  END
> <s_m_entry_id>
41293

> <s_m_entry_name>
dock_pv.410

> <s_m_Source_Path>
/home/csk/Desktop/cluster/DUD-E-result/tysy

> <s_m_Source_File>
dock_pv.maegz

> <i_m_Source_File_Index>
410

> <chembl_id>
CHEMBL492837

> <chembl_pref_name>
None

> <i_lp_mmshare_version>
53161

> <r_lp_tautomer_probability>
1

> <s_lp_Force_Field>
OPLS_2005

> <r_lp_Energy>
22.913875

> <b_lp_Chiralities_Consistent>
1

> <s_lp_Variant>
CHEMBL1952_lig157-1

> <s_i_glide_gridfile>
glide-grid_1syn

> <i_i_glide_lignum>
334

> <i_i_glide_rotatable_bonds>
4

> <r_i_docking_score>
-7.32657883837777

> <r_i_glide_ligand_efficiency>
-0.318546906016425

> <r_i_glide_ligand_efficiency_sa>
-0.90590502660717

> <r_i_glide_ligand_efficiency_ln>
-1.77163319686367

> <r_i_glide_gscore>
-7.32657883837777

> <r_i_glide_lipo>
-3.24986459592749

> <r_i_glide_hbond>
-0.154753057198407

> <r_i_glide_metal>
0

> <r_i_glide_rewards>
-1.49499862622805

> <r_i_glide_evdw>
-43.648796081543

> <r_i_glide_ecoul>
-3.26346349716187

> <r_i_glide_erotb>
0.340956499394059

> <r_i_glide_esite>
-0.0959597297664544

> <r_i_glide_emodel>
-67.5815319961421

> <r_i_glide_energy>
-46.9122595787048

> <r_i_glide_einternal>
1.22663378715515

> <i_i_glide_confnum>
4

> <i_i_glide_posenum>
90

> <r_i_glide_eff_state_penalty>
0

> <s_user_duplicate_titles>
CHEMBL1952_lig157

> <i_f3d_flags>
0

> <s_m_subgroup_title>
dock_pv

> <s_m_subgroupid>
dock_pv

> <b_m_subgroup_collapsed>
1

$$$$
CHEMBL1952_lig473
                    3D
 Schrodinger Suite 2021-1.
 21 23  0  0  1  0            999 V2000
   13.3716   18.2352   29.5795 C   0  0  0  0  0  0
   12.6385   19.0283   31.7460 C   0  0  0  0  0  0
   12.5997   19.0115   30.3865 O   0  0  0  0  0  0
   14.2646   17.2268   30.2302 C   0  0  0  0  0  0
   15.0360   16.3432   29.4686 C   0  0  0  0  0  0
   15.9231   15.4567   30.0711 C   0  0  0  0  0  0
   16.0611   15.4161   31.4559 C   0  0  0  0  0  0
   13.5660   18.0616   32.4241 C   0  0  0  0  0  0
   14.3813   17.1720   31.6548 C   0  0  0  0  0  0
   15.2740   16.2558   32.2858 C   0  0  0  0  0  0
   15.3162   16.2292   33.7090 C   0  0  0  0  0  0
   14.5005   17.0866   34.4432 C   0  0  0  0  0  0
   13.6461   17.9863   33.8169 C   0  0  0  0  0  0
   13.3079   18.4496   28.3713 O   0  0  0  0  0  0
   11.8915   19.8229   32.3174 O   0  0  0  0  0  0
   16.3382   15.1274   34.5705 Cl  0  0  0  0  0  0
   14.9668   16.3425   28.3906 H   0  0  0  0  0  0
   16.5163   14.7941   29.4576 H   0  0  0  0  0  0
   16.7533   14.7140   31.8996 H   0  0  0  0  0  0
   14.5270   17.0451   35.5232 H   0  0  0  0  0  0
   13.0346   18.6298   34.4350 H   0  0  0  0  0  0
  1  4  1  0  0  0
  1  3  1  0  0  0
  1 14  2  0  0  0
  2  8  1  0  0  0
  2  3  1  0  0  0
  2 15  2  0  0  0
  4  9  2  0  0  0
  4  5  1  0  0  0
  5  6  2  0  0  0
  5 17  1  0  0  0
  6  7  1  0  0  0
  6 18  1  0  0  0
  7 10  2  0  0  0
  7 19  1  0  0  0
  8  9  1  0  0  0
  8 13  2  0  0  0
  9 10  1  0  0  0
 10 11  1  0  0  0
 11 12  2  0  0  0
 11 16  1  0  0  0
 12 13  1  0  0  0
 12 20  1  0  0  0
 13 21  1  0  0  0
M  END
> <s_m_entry_id>
41294

> <s_m_entry_name>
dock_pv.411

> <s_m_Source_Path>
/home/csk/Desktop/cluster/DUD-E-result/tysy

> <s_m_Source_File>
dock_pv.maegz

> <i_m_Source_File_Index>
411

> <chembl_id>
CHEMBL2323370

> <chembl_pref_name>
None

> <i_lp_mmshare_version>
53161

> <r_lp_tautomer_probability>
1

> <s_lp_Force_Field>
OPLS_2005

> <r_lp_Energy>
34.724508

> <b_lp_Chiralities_Consistent>
1

> <s_lp_Variant>
CHEMBL1952_lig473-1

> <s_i_glide_gridfile>
glide-grid_1syn

> <i_i_glide_lignum>
903

> <i_i_glide_rotatable_bonds>
0

> <r_i_docking_score>
-7.3257949406916

> <r_i_glide_ligand_efficiency>
-0.457862183793225

> <r_i_glide_ligand_efficiency_sa>
-1.15374040555756

> <r_i_glide_ligand_efficiency_ln>
-1.94184828510601

> <r_i_glide_gscore>
-7.3257949406916

> <r_i_glide_lipo>
-2.87199185564413

> <r_i_glide_hbond>
0

> <r_i_glide_metal>
0

> <r_i_glide_rewards>
-2.6602834540193

> <r_i_glide_evdw>
-34.5893096923828

> <r_i_glide_ecoul>
-0.427027642726898

> <r_i_glide_erotb>
0

> <r_i_glide_esite>
0

> <r_i_glide_emodel>
-50.4039021118884

> <r_i_glide_energy>
-35.0163373351097

> <r_i_glide_einternal>
0

> <i_i_glide_confnum>
1

> <i_i_glide_posenum>
316

> <r_i_glide_eff_state_penalty>
0

> <s_user_duplicate_titles>
CHEMBL1952_lig473

> <i_f3d_flags>
0

> <s_m_subgroup_title>
dock_pv

> <s_m_subgroupid>
dock_pv

> <b_m_subgroup_collapsed>
1

$$$$
CHEMBL1952_lig402
                    3D
 Schrodinger Suite 2021-1.
 51 55  0  0  1  0            999 V2000
   12.7512   11.8072   36.9825 S   0  0  0  0  0  0
   13.9370   18.6185   33.1917 N   0  0  0  0  0  0
   13.0216   18.8134   32.2848 C   0  0  0  0  0  0
   13.1275   17.9693   31.2081 N   0  0  0  0  0  0
   14.6888   17.5900   32.7024 C   0  0  0  0  0  0
   16.4492   15.9333   32.5972 C   0  0  0  0  0  0
   14.2127   17.1537   31.4490 C   0  0  0  0  0  0
   15.8118   16.9875   33.2644 C   0  0  0  0  0  0
   15.9580   15.5165   31.3304 C   0  0  0  0  0  0
   17.7551   15.3386   33.1729 C   0  0  1  0  0  0
   14.1705   12.7107   36.3812 C   0  0  0  0  0  0
   14.8320   16.1228   30.7472 C   0  0  0  0  0  0
   17.7921   15.0234   34.9617 S   0  0  0  0  0  0
   11.5659   12.6453   36.7636 O   0  0  0  0  0  0
   12.8295   10.4470   36.4383 O   0  0  0  0  0  0
   13.0002   11.7096   38.7535 C   0  0  0  0  0  0
   12.0394   19.7471   32.3755 N   0  0  0  0  0  0
   14.0795   14.0916   36.1889 C   0  0  0  0  0  0
   15.3587   12.0284   36.0996 C   0  0  0  0  0  0
   16.3713   14.1147   35.4540 C   0  0  0  0  0  0
   16.4648   12.7353   35.6339 C   0  0  0  0  0  0
   15.1859   14.7925   35.7294 C   0  0  0  0  0  0
   16.6615   14.3998   30.5554 C   0  0  0  0  0  0
   18.2678   14.0926   32.4342 C   0  0  0  0  0  0
   18.1414   14.2853   30.9251 C   0  0  0  0  0  0
   13.2723   10.4802   39.3545 C   0  0  0  0  0  0
   12.9223   12.8747   39.5203 C   0  0  0  0  0  0
   13.1236   12.8057   40.8979 C   0  0  0  0  0  0
   13.4634   10.4141   40.7318 C   0  0  0  0  0  0
   13.3921   11.5776   41.4975 C   0  0  0  0  0  0
   12.5001   18.0005   30.4223 H   0  0  0  0  0  0
   16.1915   17.3550   34.2007 H   0  0  0  0  0  0
   18.5135   16.1123   33.0696 H   0  0  0  0  0  0
   14.4665   15.7976   29.7863 H   0  0  0  0  0  0
   12.0568   20.3980   33.1532 H   0  0  0  0  0  0
   11.3310   19.8704   31.6617 H   0  0  0  0  0  0
   13.1599   14.6244   36.3859 H   0  0  0  0  0  0
   15.4289   10.9596   36.2411 H   0  0  0  0  0  0
   17.3923   12.2195   35.4269 H   0  0  0  0  0  0
   15.1253   15.8638   35.6146 H   0  0  0  0  0  0
   16.1921   13.4441   30.7837 H   0  0  0  0  0  0
   16.5578   14.5429   29.4792 H   0  0  0  0  0  0
   19.3097   13.8988   32.6968 H   0  0  0  0  0  0
   17.7119   13.2042   32.7378 H   0  0  0  0  0  0
   18.6885   15.1721   30.6074 H   0  0  0  0  0  0
   18.5904   13.4429   30.3951 H   0  0  0  0  0  0
   13.3318    9.5791   38.7608 H   0  0  0  0  0  0
   12.7141   13.8243   39.0476 H   0  0  0  0  0  0
   13.0806   13.7068   41.4924 H   0  0  0  0  0  0
   13.6799    9.4623   41.1933 H   0  0  0  0  0  0
   13.5644   11.5238   42.5636 H   0  0  0  0  0  0
  1 11  1  0  0  0
  1 14  2  0  0  0
  1 15  2  0  0  0
  1 16  1  0  0  0
  2  5  1  0  0  0
  2  3  2  0  0  0
  3 17  1  0  0  0
  3  4  1  0  0  0
  4  7  1  0  0  0
  4 31  1  0  0  0
  5  8  2  0  0  0
  5  7  1  0  0  0
  6 10  1  0  0  0
  6  8  1  0  0  0
  6  9  2  0  0  0
  7 12  2  0  0  0
  8 32  1  0  0  0
  9 12  1  0  0  0
  9 23  1  0  0  0
 10 13  1  0  0  0
 10 24  1  0  0  0
 10 33  1  0  0  0
 11 18  2  0  0  0
 11 19  1  0  0  0
 12 34  1  0  0  0
 13 20  1  0  0  0
 16 26  1  0  0  0
 16 27  2  0  0  0
 17 35  1  0  0  0
 17 36  1  0  0  0
 18 22  1  0  0  0
 18 37  1  0  0  0
 19 21  2  0  0  0
 19 38  1  0  0  0
 20 21  1  0  0  0
 20 22  2  0  0  0
 21 39  1  0  0  0
 22 40  1  0  0  0
 23 25  1  0  0  0
 23 41  1  0  0  0
 23 42  1  0  0  0
 24 25  1  0  0  0
 24 43  1  0  0  0
 24 44  1  0  0  0
 25 45  1  0  0  0
 25 46  1  0  0  0
 26 29  2  0  0  0
 26 47  1  0  0  0
 27 28  1  0  0  0
 27 48  1  0  0  0
 28 30  2  0  0  0
 28 49  1  0  0  0
 29 30  1  0  0  0
 29 50  1  0  0  0
 30 51  1  0  0  0
M  END
> <s_m_entry_id>
41295

> <s_m_entry_name>
dock_pv.412

> <s_m_Source_Path>
/home/csk/Desktop/cluster/DUD-E-result/tysy

> <s_m_Source_File>
dock_pv.maegz

> <i_m_Source_File_Index>
412

> <chembl_id>
CHEMBL353191

> <chembl_pref_name>
None

> <i_lp_mmshare_version>
53161

> <r_lp_tautomer_probability>
1

> <s_lp_Force_Field>
OPLS_2005

> <r_lp_Energy>
17.009667

> <b_lp_Chiralities_Consistent>
1

> <s_lp_Variant>
CHEMBL1952_lig402-2

> <s_i_glide_gridfile>
glide-grid_1syn

> <i_i_glide_lignum>
790

> <i_i_glide_rotatable_bonds>
4

> <r_i_docking_score>
-7.32248197371186

> <r_i_glide_ligand_efficiency>
-0.244082732457062

> <r_i_glide_ligand_efficiency_sa>
-0.758421799572775

> <r_i_glide_ligand_efficiency_ln>
-1.6637476892587

> <r_i_glide_gscore>
-7.32248197371186

> <r_i_glide_lipo>
-3.89405159425742

> <r_i_glide_hbond>
-0.178109096698736

> <r_i_glide_metal>
0

> <r_i_glide_rewards>
-0.870485785154255

> <r_i_glide_evdw>
-48.6033935546875

> <r_i_glide_ecoul>
-2.46517324447632

> <r_i_glide_erotb>
0.420110166804368

> <r_i_glide_esite>
0

> <r_i_glide_emodel>
-68.6190806864667

> <r_i_glide_energy>
-51.0685667991638

> <r_i_glide_einternal>
3.8807373046875

> <i_i_glide_confnum>
2

> <i_i_glide_posenum>
266

> <r_i_glide_eff_state_penalty>
0

> <s_user_duplicate_titles>
CHEMBL1952_lig402

> <i_f3d_flags>
0

> <s_m_subgroup_title>
dock_pv

> <s_m_subgroupid>
dock_pv

> <b_m_subgroup_collapsed>
1

$$$$
CHEMBL1952_lig344
                    3D
 Schrodinger Suite 2021-1.
 53 56  0  0  1  0            999 V2000
   13.0412   12.1631   38.4203 S   0  0  0  0  0  0
   14.3414   12.5699   37.2448 C   0  0  0  0  0  0
   13.9712   17.8079   32.8471 C   0  0  0  0  0  0
   15.0636   16.8124   32.5544 C   0  0  0  0  0  0
   13.3112   18.1952   31.7306 N   0  0  0  0  0  0
   14.4077   16.8622   30.1958 N   0  0  0  0  0  0
   15.2092   16.3637   31.2379 C   0  0  0  0  0  0
   13.5199   17.7528   30.4546 C   0  0  0  0  0  0
   14.9496   11.6041   36.4319 C   0  0  0  0  0  0
   16.0040   11.9680   35.5957 C   0  0  0  0  0  0
   16.5135   13.2767   35.5560 C   0  0  0  0  0  0
   14.7847   13.8902   37.1660 C   0  0  0  0  0  0
   17.6622   13.6210   34.7761 N   0  0  0  0  0  0
   18.9917   11.5328   34.8837 C   0  0  0  0  0  0
   13.4998   11.0089   39.2031 O   0  0  0  0  0  0
   12.6490   13.4027   39.1033 O   0  0  0  0  0  0
   19.4004   10.6276   35.5907 C   0  0  0  0  0  0
   11.6334   11.6497   37.4399 C   0  0  0  0  0  0
   15.8988   16.3488   33.5700 C   0  0  0  0  0  0
   13.6710   18.2272   33.9579 O   0  0  0  0  0  0
   17.8897   15.0068   34.3478 C   0  0  0  0  0  0
   15.8535   14.2315   36.3403 C   0  0  0  0  0  0
   16.9124   15.4391   33.2617 C   0  0  0  0  0  0
   16.1963   15.4279   30.9377 C   0  0  0  0  0  0
   14.4629    9.9442   36.4301 Cl  0  0  0  0  0  0
   18.4648   12.6264   34.0471 C   0  0  0  0  0  0
   17.0531   14.9742   31.9452 C   0  0  0  0  0  0
   12.6708   18.3490   29.3579 C   0  0  0  0  0  0
   10.8945   12.6148   36.7542 C   0  0  0  0  0  0
   11.2740   10.3015   37.3684 C   0  0  0  0  0  0
   10.1805    9.9173   36.5961 C   0  0  0  0  0  0
    9.7955   12.2278   35.9928 C   0  0  0  0  0  0
    9.4467   10.8822   35.9114 C   0  0  0  0  0  0
   16.4273   11.1934   34.9804 H   0  0  0  0  0  0
   14.3398   14.6605   37.7777 H   0  0  0  0  0  0
   19.7626    9.8281   36.1943 H   0  0  0  0  0  0
   15.7784   16.7101   34.5813 H   0  0  0  0  0  0
   12.5990   18.8877   31.8970 H   0  0  0  0  0  0
   18.8950   15.1182   33.9383 H   0  0  0  0  0  0
   17.8780   15.6887   35.1932 H   0  0  0  0  0  0
   16.1879   15.2547   36.3702 H   0  0  0  0  0  0
   16.3125   15.0779   29.9227 H   0  0  0  0  0  0
   17.8701   12.2178   33.2345 H   0  0  0  0  0  0
   19.3421   13.0755   33.5775 H   0  0  0  0  0  0
   17.8382   14.2730   31.6969 H   0  0  0  0  0  0
   12.9513   17.9645   28.3766 H   0  0  0  0  0  0
   11.6154   18.1262   29.5156 H   0  0  0  0  0  0
   12.7821   19.4323   29.3283 H   0  0  0  0  0  0
   11.1657   13.6594   36.8132 H   0  0  0  0  0  0
   11.8406    9.5510   37.8998 H   0  0  0  0  0  0
    9.9027    8.8762   36.5296 H   0  0  0  0  0  0
    9.2154   12.9728   35.4679 H   0  0  0  0  0  0
    8.5965   10.5855   35.3140 H   0  0  0  0  0  0
  1  2  1  0  0  0
  1 15  2  0  0  0
  1 16  2  0  0  0
  1 18  1  0  0  0
  2  9  2  0  0  0
  2 12  1  0  0  0
  3 20  2  0  0  0
  3  4  1  0  0  0
  3  5  1  0  0  0
  4 19  1  0  0  0
  4  7  2  0  0  0
  5  8  1  0  0  0
  5 38  1  0  0  0
  6  7  1  0  0  0
  6  8  2  0  0  0
  7 24  1  0  0  0
  8 28  1  0  0  0
  9 10  1  0  0  0
  9 25  1  0  0  0
 10 11  2  0  0  0
 10 34  1  0  0  0
 11 22  1  0  0  0
 11 13  1  0  0  0
 12 22  2  0  0  0
 12 35  1  0  0  0
 13 21  1  0  0  0
 13 26  1  0  0  0
 14 26  1  0  0  0
 14 17  3  0  0  0
 17 36  1  0  0  0
 18 29  1  0  0  0
 18 30  2  0  0  0
 19 37  1  0  0  0
 19 23  2  0  0  0
 21 39  1  0  0  0
 21 40  1  0  0  0
 21 23  1  0  0  0
 22 41  1  0  0  0
 23 27  1  0  0  0
 24 27  2  0  0  0
 24 42  1  0  0  0
 26 43  1  0  0  0
 26 44  1  0  0  0
 27 45  1  0  0  0
 28 46  1  0  0  0
 28 47  1  0  0  0
 28 48  1  0  0  0
 29 32  2  0  0  0
 29 49  1  0  0  0
 30 31  1  0  0  0
 30 50  1  0  0  0
 31 33  2  0  0  0
 31 51  1  0  0  0
 32 33  1  0  0  0
 32 52  1  0  0  0
 33 53  1  0  0  0
M  END
> <s_m_entry_id>
41296

> <s_m_entry_name>
dock_pv.413

> <s_m_Source_Path>
/home/csk/Desktop/cluster/DUD-E-result/tysy

> <s_m_Source_File>
dock_pv.maegz

> <i_m_Source_File_Index>
413

> <chembl_id>
CHEMBL162076

> <chembl_pref_name>
None

> <i_lp_mmshare_version>
53161

> <r_lp_tautomer_probability>
0.883938

> <s_lp_Force_Field>
OPLS_2005

> <r_lp_Energy>
29.865673

> <b_lp_Chiralities_Consistent>
1

> <s_lp_Variant>
CHEMBL1952_lig344-1

> <s_i_glide_gridfile>
glide-grid_1syn

> <i_i_glide_lignum>
631

> <i_i_glide_rotatable_bonds>
7

> <r_i_docking_score>
-7.3223501357305

> <r_i_glide_ligand_efficiency>
-0.221889398052439

> <r_i_glide_ligand_efficiency_sa>
-0.7117178608858

> <r_i_glide_ligand_efficiency_ln>
-1.62845275708653

> <r_i_glide_gscore>
-7.3223501357305

> <r_i_glide_lipo>
-3.7958439423521

> <r_i_glide_hbond>
0

> <r_i_glide_metal>
0

> <r_i_glide_rewards>
-0.679368853064209

> <r_i_glide_evdw>
-54.936710357666

> <r_i_glide_ecoul>
-4.80751323699951

> <r_i_glide_erotb>
0.620825163119031

> <r_i_glide_esite>
0

> <r_i_glide_emodel>
-85.2373829758969

> <r_i_glide_energy>
-59.7442235946655

> <r_i_glide_einternal>
4.14098501205444

> <i_i_glide_confnum>
102

> <i_i_glide_posenum>
156

> <r_i_glide_eff_state_penalty>
0

> <s_user_duplicate_titles>
CHEMBL1952_lig344,CHEMBL1952_lig344,266987

> <i_f3d_flags>
0

> <s_m_subgroup_title>
dock_pv

> <s_m_subgroupid>
dock_pv

> <b_m_subgroup_collapsed>
1

$$$$
CHEMBL1952_lig351
                    3D
 Schrodinger Suite 2021-1.
 52 55  0  0  1  0            999 V2000
   14.5002   17.8533   32.6451 C   0  0  0  0  0  0
   15.3845   16.6639   32.3769 C   0  0  0  0  0  0
   13.7864   18.2260   31.5569 N   0  0  0  0  0  0
   14.5698   16.6417   30.0686 N   0  0  0  0  0  0
   12.8570   12.7752   38.5364 S   0  0  2  0  0  0
   14.2519   12.8585   37.3624 C   0  0  0  0  0  0
   15.3753   16.1120   31.0925 C   0  0  0  0  0  0
   13.8195   17.6546   30.3148 C   0  0  0  0  0  0
   14.8913   11.7109   36.8893 C   0  0  0  0  0  0
   15.9623   11.8294   36.0060 C   0  0  0  0  0  0
   16.4528   13.0801   35.5909 C   0  0  0  0  0  0
   17.5696   13.1852   34.7015 N   0  0  0  0  0  0
   14.6968   14.1095   36.9521 C   0  0  0  0  0  0
   18.5919   10.9051   34.4141 C   0  0  0  0  0  0
   18.5921    9.7399   34.0560 C   0  0  0  0  0  0
   16.2057   16.1487   33.3773 C   0  0  0  0  0  0
   13.2605   11.7689   39.6178 O   0  0  0  0  0  0
   14.4263   18.4584   33.7081 O   0  0  0  0  0  0
   11.6723   11.9300   37.4361 C   0  0  0  0  0  0
   17.9683   14.5031   34.1649 C   0  0  0  0  0  0
   17.0186   15.0450   33.1007 C   0  0  0  0  0  0
   15.7904   14.2125   36.0950 C   0  0  0  0  0  0
   16.2010   15.0267   30.8086 C   0  0  0  0  0  0
   14.4942   10.4772   37.2767 F   0  0  0  0  0  0
   18.7106   12.2783   34.9272 C   0  0  0  0  0  0
   17.0193   14.4930   31.8107 C   0  0  0  0  0  0
   12.9823   18.2836   29.2268 C   0  0  0  0  0  0
   11.4598   10.5566   37.5639 C   0  0  0  0  0  0
   11.0041   12.6688   36.4591 C   0  0  0  0  0  0
   10.1142   12.0253   35.6028 C   0  0  0  0  0  0
   10.5764    9.9153   36.6998 C   0  0  0  0  0  0
    9.9071   10.6529   35.7239 C   0  0  0  0  0  0
   16.3907   10.9095   35.6544 H   0  0  0  0  0  0
   14.2265   15.0072   37.3256 H   0  0  0  0  0  0
   18.6451    8.7171   33.7705 H   0  0  0  0  0  0
   16.2118   16.6150   34.3529 H   0  0  0  0  0  0
   13.2119   19.0398   31.7053 H   0  0  0  0  0  0
   18.9569   14.4584   33.7039 H   0  0  0  0  0  0
   18.0801   15.2233   34.9766 H   0  0  0  0  0  0
   16.1294   15.2052   35.8740 H   0  0  0  0  0  0
   16.2055   14.5983   29.8173 H   0  0  0  0  0  0
   19.6307   12.6626   34.4829 H   0  0  0  0  0  0
   18.9142   12.2084   35.9912 H   0  0  0  0  0  0
   17.6613   13.6517   31.5851 H   0  0  0  0  0  0
   11.9449   18.3978   29.5428 H   0  0  0  0  0  0
   13.3652   19.2704   28.9712 H   0  0  0  0  0  0
   12.9897   17.6820   28.3189 H   0  0  0  0  0  0
   11.9894    9.9884   38.3151 H   0  0  0  0  0  0
   11.1764   13.7305   36.3583 H   0  0  0  0  0  0
    9.5902   12.5845   34.8412 H   0  0  0  0  0  0
   10.4143    8.8508   36.7810 H   0  0  0  0  0  0
    9.2228   10.1549   35.0523 H   0  0  0  0  0  0
  1 18  2  0  0  0
  1  2  1  0  0  0
  1  3  1  0  0  0
  2 16  1  0  0  0
  2  7  2  0  0  0
  3  8  1  0  0  0
  3 37  1  0  0  0
  4  7  1  0  0  0
  4  8  2  0  0  0
  5  6  1  0  0  0
  5 17  2  0  0  0
  5 19  1  0  0  0
  6 13  2  0  0  0
  6  9  1  0  0  0
  7 23  1  0  0  0
  8 27  1  0  0  0
  9 10  2  0  0  0
  9 24  1  0  0  0
 10 11  1  0  0  0
 10 33  1  0  0  0
 11 12  1  0  0  0
 11 22  2  0  0  0
 12 20  1  0  0  0
 12 25  1  0  0  0
 13 22  1  0  0  0
 13 34  1  0  0  0
 14 25  1  0  0  0
 14 15  3  0  0  0
 15 35  1  0  0  0
 16 36  1  0  0  0
 16 21  2  0  0  0
 19 28  2  0  0  0
 19 29  1  0  0  0
 20 38  1  0  0  0
 20 39  1  0  0  0
 20 21  1  0  0  0
 21 26  1  0  0  0
 22 40  1  0  0  0
 23 26  2  0  0  0
 23 41  1  0  0  0
 25 42  1  0  0  0
 25 43  1  0  0  0
 26 44  1  0  0  0
 27 45  1  0  0  0
 27 46  1  0  0  0
 27 47  1  0  0  0
 28 31  1  0  0  0
 28 48  1  0  0  0
 29 30  2  0  0  0
 29 49  1  0  0  0
 30 32  1  0  0  0
 30 50  1  0  0  0
 31 32  2  0  0  0
 31 51  1  0  0  0
 32 52  1  0  0  0
M  END
> <s_m_entry_id>
41297

> <s_m_entry_name>
dock_pv.414

> <s_m_Source_Path>
/home/csk/Desktop/cluster/DUD-E-result/tysy

> <s_m_Source_File>
dock_pv.maegz

> <i_m_Source_File_Index>
414

> <chembl_id>
CHEMBL161025

> <chembl_pref_name>
None

> <i_lp_mmshare_version>
53161

> <r_lp_tautomer_probability>
0.883938

> <s_lp_Force_Field>
OPLS_2005

> <r_lp_Energy>
26.36269

> <b_lp_Chiralities_Consistent>
1

> <s_lp_Variant>
CHEMBL1952_lig351-1

> <s_i_glide_gridfile>
glide-grid_1syn

> <i_i_glide_lignum>
649

> <i_i_glide_rotatable_bonds>
7

> <r_i_docking_score>
-7.32094942415733

> <r_i_glide_ligand_efficiency>
-0.228779669504917

> <r_i_glide_ligand_efficiency_sa>
-0.726330175242994

> <r_i_glide_ligand_efficiency_ln>
-1.63936013761306

> <r_i_glide_gscore>
-7.32094942415733

> <r_i_glide_lipo>
-3.66519430819179

> <r_i_glide_hbond>
0

> <r_i_glide_metal>
0

> <r_i_glide_rewards>
-0.973218668259362

> <r_i_glide_evdw>
-55.1905784606934

> <r_i_glide_ecoul>
-4.19121599197388

> <r_i_glide_erotb>
0.705674874124565

> <r_i_glide_esite>
0

> <r_i_glide_emodel>
-81.7844946681176

> <r_i_glide_energy>
-59.3817944526672

> <r_i_glide_einternal>
7.23050355911255

> <i_i_glide_confnum>
122

> <i_i_glide_posenum>
182

> <r_i_glide_eff_state_penalty>
0

> <s_user_duplicate_titles>
CHEMBL1952_lig351,CHEMBL1952_lig351

> <i_f3d_flags>
0

> <s_m_subgroup_title>
dock_pv

> <s_m_subgroupid>
dock_pv

> <b_m_subgroup_collapsed>
1

$$$$
CHEMBL1952_lig167
                    3D
 Schrodinger Suite 2021-1.
 41 43  0  0  1  0            999 V2000
   14.1291   16.8505   30.2330 C   0  0  0  0  0  0
   14.9570   15.8689   30.7916 C   0  0  0  0  0  0
   15.1159   15.8277   32.1740 C   0  0  0  0  0  0
   14.4394   16.7156   33.0155 C   0  0  0  0  0  0
   13.5942   17.6910   32.4522 C   0  0  0  0  0  0
   13.4608   17.7531   31.0533 C   0  0  0  0  0  0
   14.6806   16.6790   34.7893 S   0  0  0  0  0  0
   15.0216   14.9901   35.2498 C   0  0  0  0  0  0
   14.7125   12.6509   36.3596 S   0  0  0  0  0  0
   14.0379   14.1844   35.8629 C   0  0  0  0  0  0
   16.2298   13.0285   35.6393 C   0  0  0  0  0  0
   16.2724   14.3237   35.1176 C   0  0  0  0  0  0
   17.5445   14.7564   34.5036 C   0  0  0  0  0  0
   18.4602   13.7371   34.4948 N   0  0  0  0  0  0
   18.3194   12.4656   34.9933 C   0  0  0  0  0  0
   17.2365   12.1101   35.5847 N   0  0  0  0  0  0
   12.5508   14.4513   36.0695 C   0  0  0  0  0  0
   19.3919   11.5685   34.8672 N   0  0  0  0  0  0
   17.8430   15.8302   33.9911 O   0  0  0  0  0  0
   12.0483   14.1905   37.4926 C   0  0  0  0  0  0
   12.9145   18.5384   33.3059 O   0  0  0  0  0  0
   15.6385   14.9230   30.0603 O   0  0  0  0  0  0
   15.1556   14.6120   28.7617 C   0  0  0  0  0  0
   11.9835   19.4804   32.7750 C   0  0  0  0  0  0
   13.9995   16.9295   29.1641 H   0  0  0  0  0  0
   15.7610   15.0676   32.5739 H   0  0  0  0  0  0
   12.8431   18.5002   30.5778 H   0  0  0  0  0  0
   19.3189   13.9650   34.0184 H   0  0  0  0  0  0
   12.2942   15.4592   35.7639 H   0  0  0  0  0  0
   11.9350   13.8289   35.4226 H   0  0  0  0  0  0
   19.2189   10.5925   35.0425 H   0  0  0  0  0  0
   20.0618   11.6961   34.1119 H   0  0  0  0  0  0
   11.0481   14.6141   37.5917 H   0  0  0  0  0  0
   11.9821   13.1220   37.7031 H   0  0  0  0  0  0
   12.6967   14.6280   38.2493 H   0  0  0  0  0  0
   15.6847   13.7406   28.3927 H   0  0  0  0  0  0
   14.0944   14.3583   28.7902 H   0  0  0  0  0  0
   15.3213   15.4270   28.0561 H   0  0  0  0  0  0
   11.3924   19.8979   33.5902 H   0  0  0  0  0  0
   12.5019   20.3017   32.2785 H   0  0  0  0  0  0
   11.2784   19.0290   32.0765 H   0  0  0  0  0  0
  1  6  1  0  0  0
  1  2  2  0  0  0
  1 25  1  0  0  0
  2 22  1  0  0  0
  2  3  1  0  0  0
  3  4  2  0  0  0
  3 26  1  0  0  0
  4  7  1  0  0  0
  4  5  1  0  0  0
  5  6  2  0  0  0
  5 21  1  0  0  0
  6 27  1  0  0  0
  7  8  1  0  0  0
  8 12  1  0  0  0
  8 10  2  0  0  0
  9 11  1  0  0  0
  9 10  1  0  0  0
 10 17  1  0  0  0
 11 12  2  0  0  0
 11 16  1  0  0  0
 12 13  1  0  0  0
 13 14  1  0  0  0
 13 19  2  0  0  0
 14 15  1  0  0  0
 14 28  1  0  0  0
 15 16  2  0  0  0
 15 18  1  0  0  0
 17 20  1  0  0  0
 17 29  1  0  0  0
 17 30  1  0  0  0
 18 31  1  0  0  0
 18 32  1  0  0  0
 20 33  1  0  0  0
 20 34  1  0  0  0
 20 35  1  0  0  0
 21 24  1  0  0  0
 22 23  1  0  0  0
 23 36  1  0  0  0
 23 37  1  0  0  0
 23 38  1  0  0  0
 24 39  1  0  0  0
 24 40  1  0  0  0
 24 41  1  0  0  0
M  END
> <s_m_entry_id>
41298

> <s_m_entry_name>
dock_pv.415

> <s_m_Source_Path>
/home/csk/Desktop/cluster/DUD-E-result/tysy

> <s_m_Source_File>
dock_pv.maegz

> <i_m_Source_File_Index>
415

> <chembl_id>
CHEMBL564004

> <chembl_pref_name>
None

> <i_lp_mmshare_version>
53161

> <r_lp_tautomer_probability>
1

> <s_lp_Force_Field>
OPLS_2005

> <r_lp_Energy>
19.415126

> <b_lp_Chiralities_Consistent>
1

> <s_lp_Variant>
CHEMBL1952_lig167-1

> <s_i_glide_gridfile>
glide-grid_1syn

> <i_i_glide_lignum>
344

> <i_i_glide_rotatable_bonds>
5

> <r_i_docking_score>
-7.31145374482924

> <r_i_glide_ligand_efficiency>
-0.304643906034552

> <r_i_glide_ligand_efficiency_sa>
-0.878745084219306

> <r_i_glide_ligand_efficiency_ln>
-1.74996638188847

> <r_i_glide_gscore>
-7.31145374482924

> <r_i_glide_lipo>
-3.66679404489802

> <r_i_glide_hbond>
-0.16

> <r_i_glide_metal>
0

> <r_i_glide_rewards>
-0.939884739250087

> <r_i_glide_evdw>
-41.2480926513672

> <r_i_glide_ecoul>
-4.48842859268188

> <r_i_glide_erotb>
0.290893960789508

> <r_i_glide_esite>
-0.1

> <r_i_glide_emodel>
-64.8909257174855

> <r_i_glide_energy>
-45.7365212440491

> <r_i_glide_einternal>
1.78797745704651

> <i_i_glide_confnum>
7

> <i_i_glide_posenum>
236

> <r_i_glide_eff_state_penalty>
0

> <s_user_duplicate_titles>
CHEMBL1952_lig167

> <i_f3d_flags>
0

> <s_m_subgroup_title>
dock_pv

> <s_m_subgroupid>
dock_pv

> <b_m_subgroup_collapsed>
1

$$$$
CHEMBL1952_lig315 
                    3D
 Schrodinger Suite 2021-1.
 49 53  0  0  1  0            999 V2000
   13.7928   18.1750   32.0726 N   0  0  0  0  0  0
   13.3663   17.8595   30.7940 C   0  0  0  0  0  0
   13.9399   16.9214   30.1188 N   0  0  0  0  0  0
   14.8227   17.6143   32.7877 C   0  0  0  0  0  0
   15.4829   16.5686   32.0003 C   0  0  0  0  0  0
   14.9864   16.2947   30.7264 C   0  0  0  0  0  0
   15.7446   15.3076   30.1673 N   0  0  0  0  0  0
   16.7166   14.9553   31.0706 C   0  0  0  0  0  0
   16.5884   15.7185   32.2349 C   0  0  0  0  0  0
   15.0974   18.0070   33.9189 O   0  0  0  0  0  0
   12.3025   18.5933   30.2329 N   0  0  0  0  0  0
   17.4864   15.6568   33.4566 C   0  0  0  0  0  0
   17.0764   14.5391   34.4042 C   0  0  0  0  0  0
   17.7894   13.3394   34.4234 C   0  0  0  0  0  0
   17.3438   12.2803   35.2102 C   0  0  0  0  0  0
   16.1819   12.4003   35.9911 C   0  0  0  0  0  0
   15.5040   13.6319   35.9987 C   0  0  0  0  0  0
   15.9503   14.6917   35.2138 C   0  0  0  0  0  0
   15.6634   11.1932   36.7533 C   0  0  0  0  0  0
   16.1920   10.0891   36.5944 O   0  0  0  0  0  0
   14.6193   11.3989   37.5935 N   0  0  0  0  0  0
   13.8531   10.4225   38.2726 C   0  0  0  0  0  0
   13.6443    9.1520   37.7032 C   0  0  0  0  0  0
   12.9074    8.1775   38.3696 C   0  0  0  0  0  0
   12.3588    8.4568   39.6154 C   0  0  0  0  0  0
   12.5353    9.7151   40.1843 C   0  0  0  0  0  0
   13.2653   10.7173   39.5262 C   0  0  0  0  0  0
   13.3680   12.0290   40.2519 C   0  0  0  0  0  0
   13.5188   12.1643   41.5527 N   0  0  0  0  0  0
   13.5442   13.5338   41.8011 N   0  0  0  0  0  0
   13.3920   14.2279   40.6185 N   0  0  0  0  0  0
   13.2756   13.2788   39.6871 N   0  0  0  0  0  0
   13.3294   18.9307   32.5527 H   0  0  0  0  0  0
   15.6056   14.9150   29.2474 H   0  0  0  0  0  0
   17.4321   14.1847   30.8165 H   0  0  0  0  0  0
   11.8972   18.2765   29.3654 H   0  0  0  0  0  0
   11.6128   19.0282   30.8288 H   0  0  0  0  0  0
   17.4762   16.6063   33.9904 H   0  0  0  0  0  0
   18.5261   15.5171   33.1556 H   0  0  0  0  0  0
   18.6647   13.2073   33.8012 H   0  0  0  0  0  0
   17.8988   11.3525   35.1791 H   0  0  0  0  0  0
   14.6061   13.7848   36.5775 H   0  0  0  0  0  0
   15.3984   15.6211   35.2086 H   0  0  0  0  0  0
   14.4178   12.3579   37.8134 H   0  0  0  0  0  0
   14.0427    8.9042   36.7305 H   0  0  0  0  0  0
   12.7606    7.2073   37.9168 H   0  0  0  0  0  0
   11.7884    7.7010   40.1356 H   0  0  0  0  0  0
   12.0883    9.9077   41.1486 H   0  0  0  0  0  0
   13.1037   13.4879   38.7151 H   0  0  0  0  0  0
  1  2  1  0  0  0
  1  4  1  0  0  0
  1 33  1  0  0  0
  2  3  2  0  0  0
  2 11  1  0  0  0
  3  6  1  0  0  0
  4  5  1  0  0  0
  4 10  2  0  0  0
  5  6  2  0  0  0
  5  9  1  0  0  0
  6  7  1  0  0  0
  7  8  1  0  0  0
  7 34  1  0  0  0
  8  9  2  0  0  0
  8 35  1  0  0  0
  9 12  1  0  0  0
 11 36  1  0  0  0
 11 37  1  0  0  0
 12 13  1  0  0  0
 12 38  1  0  0  0
 12 39  1  0  0  0
 13 14  2  0  0  0
 13 18  1  0  0  0
 14 15  1  0  0  0
 14 40  1  0  0  0
 15 16  2  0  0  0
 15 41  1  0  0  0
 16 17  1  0  0  0
 16 19  1  0  0  0
 17 18  2  0  0  0
 17 42  1  0  0  0
 18 43  1  0  0  0
 19 20  2  0  0  0
 19 21  1  0  0  0
 21 22  1  0  0  0
 21 44  1  0  0  0
 22 23  2  0  0  0
 22 27  1  0  0  0
 23 24  1  0  0  0
 23 45  1  0  0  0
 24 25  2  0  0  0
 24 46  1  0  0  0
 25 26  1  0  0  0
 25 47  1  0  0  0
 26 27  2  0  0  0
 26 48  1  0  0  0
 27 28  1  0  0  0
 28 29  2  0  0  0
 28 32  1  0  0  0
 29 30  1  0  0  0
 30 31  2  0  0  0
 31 32  1  0  0  0
 32 49  1  0  0  0
M  END
> <s_m_entry_id>
41301

> <s_m_entry_name>
dock_pv.418

> <s_m_Source_Path>
/home/csk/Desktop/cluster/DUD-E-result/tysy

> <s_m_Source_File>
dock_pv.maegz

> <i_m_Source_File_Index>
418

> <chembl_id>
CHEMBL4445309

> <chembl_pref_name>
None

> <i_lp_mmshare_version>
53161

> <r_lp_tautomer_probability>
0.3

> <s_lp_Force_Field>
OPLS_2005

> <r_lp_Energy>
36.182381

> <b_lp_Chiralities_Consistent>
1

> <s_lp_Variant>
CHEMBL1952_lig315 -1

> <s_i_glide_gridfile>
glide-grid_1syn

> <i_i_glide_lignum>
586

> <i_i_glide_rotatable_bonds>
6

> <r_i_docking_score>
-7.30782652464086

> <r_i_glide_ligand_efficiency>
-0.228369578895027

> <r_i_glide_ligand_efficiency_sa>
-0.725028218713416

> <r_i_glide_ligand_efficiency_ln>
-1.63642156269459

> <r_i_glide_gscore>
-7.30782652464086

> <r_i_glide_lipo>
-2.65628823403709

> <r_i_glide_hbond>
-0.0384860412384298

> <r_i_glide_metal>
0

> <r_i_glide_rewards>
-1.38233115456221

> <r_i_glide_evdw>
-54.3994941711426

> <r_i_glide_ecoul>
-7.22535753250122

> <r_i_glide_erotb>
0.652090907435176

> <r_i_glide_esite>
-0.079033663805994

> <r_i_glide_emodel>
-88.1816653850116

> <r_i_glide_energy>
-61.6248517036438

> <r_i_glide_einternal>
1.99441635608673

> <i_i_glide_confnum>
87

> <i_i_glide_posenum>
109

> <r_i_glide_eff_state_penalty>
0

> <s_user_duplicate_titles>
CHEMBL1952_lig315 

> <i_f3d_flags>
0

> <s_m_subgroup_title>
dock_pv

> <s_m_subgroupid>
dock_pv

> <b_m_subgroup_collapsed>
1

$$$$
CHEMBL1952_lig57
                    3D
 Schrodinger Suite 2021-1.
 57 60  0  0  1  0            999 V2000
   15.2633   11.2702   36.5392 N   0  0  0  0  0  0
   14.5888   10.1792   36.0091 C   0  0  0  0  0  0
   13.2384   10.1931   36.2450 N   0  0  0  0  0  0
   16.6869   11.4870   36.2810 C   0  0  2  0  0  0
   14.5667   12.2491   37.2212 C   0  0  0  0  0  0
   13.2363   12.2227   37.4287 C   0  0  0  0  0  0
   15.8587   16.3925   32.1360 C   0  0  2  0  0  0
   12.4696   11.1006   36.9121 C   0  0  0  0  0  0
   14.6795   16.1545   31.1209 C   0  0  2  0  0  0
   17.6066   14.2081   31.5914 P   0  0  1  0  0  0
   16.8740   12.2113   35.1197 O   0  0  0  0  0  0
   14.5892   16.5909   28.7904 N   0  0  0  0  0  0
   17.7169   10.3597   36.2260 C   0  0  0  0  0  0
   15.0539   15.8165   29.6746 C   0  0  0  0  0  0
   17.1651   15.8276   31.7550 N   0  0  3  0  0  0
   18.2687   12.2614   34.8587 C   0  0  1  0  0  0
   13.8335   17.3736   30.8151 C   0  0  0  0  0  0
   15.4999   16.0841   33.5870 C   0  0  0  0  0  0
   18.7126   10.8416   35.1837 C   0  0  1  0  0  0
   13.8290   17.5386   29.4412 C   0  0  0  0  0  0
   18.5086   12.6130   33.4056 C   0  0  0  0  0  0
   15.0425    9.2318   35.3682 O   0  0  0  0  0  0
   17.7835   13.7666   33.1272 O   0  0  0  0  0  0
   16.7229   13.3348   30.7858 O   0  0  0  0  0  0
   11.2579   10.9531   37.0504 O   0  0  0  0  0  0
   16.2713   15.5624   34.3940 O   0  0  0  0  0  0
   12.6021   13.2110   38.0972 F   0  0  0  0  0  0
   19.1447   14.2363   31.0792 O   0  0  0  0  0  0
   14.2704   16.4952   33.9001 O   0  0  0  0  0  0
   20.0640   10.7655   35.5909 O   0  0  0  0  0  0
   13.1120   18.2671   31.6149 C   0  0  0  0  0  0
   13.1044   18.5574   28.8271 C   0  0  0  0  0  0
   13.7496   16.2738   35.1895 C   0  0  0  0  0  0
   12.3776   19.2916   31.0152 C   0  0  0  0  0  0
   12.3614   19.4261   29.6245 C   0  0  0  0  0  0
   12.7333    9.4067   35.8652 H   0  0  0  0  0  0
   16.9889   12.1616   37.0845 H   0  0  0  0  0  0
   15.1751   13.0724   37.5711 H   0  0  0  0  0  0
   16.0278   17.4691   32.1268 H   0  0  0  0  0  0
   14.0573   15.3366   31.4844 H   0  0  0  0  0  0
   17.2746    9.4285   35.8989 H   0  0  0  0  0  0
   18.1752   10.2274   37.1935 H   0  0  0  0  0  0
   15.6662   14.9704   29.3843 H   0  0  0  0  0  0
   17.8978   16.5107   31.5636 H   0  0  0  0  0  0
   18.7086   13.0218   35.5070 H   0  0  0  0  0  0
   18.5860   10.2019   34.3064 H   0  0  0  0  0  0
   18.2176   11.8065   32.7310 H   0  0  0  0  0  0
   19.5582   12.8417   33.2548 H   0  0  0  0  0  0
   19.6119   13.3640   31.1879 H   0  0  0  0  0  0
   20.6254   11.0287   34.8481 H   0  0  0  0  0  0
   13.0852   18.1897   32.6891 H   0  0  0  0  0  0
   13.0950   18.6691   27.7525 H   0  0  0  0  0  0
   12.9984   17.0294   35.3660 H   0  0  0  0  0  0
   13.2920   15.2875   35.2667 H   0  0  0  0  0  0
   14.5000   16.3795   35.9760 H   0  0  0  0  0  0
   11.8047   19.9750   31.6252 H   0  0  0  0  0  0
   11.7730   20.2093   29.1691 H   0  0  0  0  0  0
  1  2  1  0  0  0
  1  4  1  0  0  0
  1  5  1  0  0  0
  2  3  1  0  0  0
  2 22  2  0  0  0
  3  8  1  0  0  0
  3 36  1  0  0  0
  4 11  1  0  0  0
  4 13  1  0  0  0
  4 37  1  0  0  0
  5  6  2  0  0  0
  5 38  1  0  0  0
  6  8  1  0  0  0
  6 27  1  0  0  0
  7 15  1  0  0  0
  7  9  1  0  0  0
  7 18  1  0  0  0
  7 39  1  0  0  0
  8 25  2  0  0  0
  9 14  1  0  0  0
  9 17  1  0  0  0
  9 40  1  0  0  0
 10 23  1  0  0  0
 10 15  1  0  0  0
 10 24  2  0  0  0
 10 28  1  0  0  0
 11 16  1  0  0  0
 12 14  2  0  0  0
 12 20  1  0  0  0
 13 19  1  0  0  0
 13 41  1  0  0  0
 13 42  1  0  0  0
 14 43  1  0  0  0
 15 44  1  0  0  0
 16 21  1  0  0  0
 16 19  1  0  0  0
 16 45  1  0  0  0
 17 20  2  0  0  0
 17 31  1  0  0  0
 18 26  2  0  0  0
 18 29  1  0  0  0
 19 30  1  0  0  0
 19 46  1  0  0  0
 20 32  1  0  0  0
 21 23  1  0  0  0
 21 47  1  0  0  0
 21 48  1  0  0  0
 28 49  1  0  0  0
 29 33  1  0  0  0
 30 50  1  0  0  0
 31 34  2  0  0  0
 31 51  1  0  0  0
 32 35  2  0  0  0
 32 52  1  0  0  0
 33 53  1  0  0  0
 33 54  1  0  0  0
 33 55  1  0  0  0
 34 35  1  0  0  0
 34 56  1  0  0  0
 35 57  1  0  0  0
M  END
> <s_m_entry_id>
41302

> <s_m_entry_name>
dock_pv.419

> <s_m_Source_Path>
/home/csk/Desktop/cluster/DUD-E-result/tysy

> <s_m_Source_File>
dock_pv.maegz

> <i_m_Source_File_Index>
419

> <chembl_id>
CHEMBL1791078

> <chembl_pref_name>
None

> <i_lp_mmshare_version>
53161

> <r_lp_tautomer_probability>
0.999138390123642

> <s_lp_Force_Field>
OPLS_2005

> <r_lp_Energy>
26.967028

> <b_lp_Chiralities_Consistent>
1

> <s_lp_Variant>
CHEMBL1952_lig57-1

> <s_i_glide_gridfile>
glide-grid_1syn

> <i_i_glide_lignum>
80

> <i_i_glide_rotatable_bonds>
11

> <r_i_docking_score>
-7.30676841980329

> <r_i_glide_ligand_efficiency>
-0.20876481199438

> <r_i_glide_ligand_efficiency_sa>
-0.682883542458374

> <r_i_glide_ligand_efficiency_ln>
-1.60399783313468

> <r_i_glide_gscore>
-7.30676841980329

> <r_i_glide_lipo>
-2.26799466571355

> <r_i_glide_hbond>
-0.205329637892842

> <r_i_glide_metal>
0

> <r_i_glide_rewards>
-1.56037096138753

> <r_i_glide_evdw>
-43.843318939209

> <r_i_glide_ecoul>
-10.8498620986938

> <r_i_glide_erotb>
0.546572106955153

> <r_i_glide_esite>
0

> <r_i_glide_emodel>
-67.6678547110181

> <r_i_glide_energy>
-54.6931810379028

> <r_i_glide_einternal>
15.3650426864624

> <i_i_glide_confnum>
27

> <i_i_glide_posenum>
174

> <r_i_glide_eff_state_penalty>
0

> <s_user_duplicate_titles>
CHEMBL1952_lig57

> <i_f3d_flags>
0

> <s_m_subgroup_title>
dock_pv

> <s_m_subgroupid>
dock_pv

> <b_m_subgroup_collapsed>
1

$$$$
CHEMBL1952_lig394
                    3D
 Schrodinger Suite 2021-1.
 31 33  0  0  1  0            999 V2000
   13.7917   17.9442   31.9698 C   0  0  0  0  0  0
   14.6486   16.8635   31.3185 C   0  0  0  0  0  0
   13.0426   18.6349   31.0807 N   0  0  0  0  0  0
   13.6900   17.5546   29.1576 N   0  0  0  0  0  0
   14.5068   16.7168   29.9271 C   0  0  0  0  0  0
   13.0243   18.4829   29.7278 C   0  0  0  0  0  0
   15.5343   16.0173   32.0275 C   0  0  0  0  0  0
   15.7987   16.1803   33.7969 S   0  0  0  0  0  0
   13.7006   18.2263   33.1589 O   0  0  0  0  0  0
   16.9875   14.9493   34.2506 C   0  0  0  0  0  0
   15.2005   15.7310   29.2369 C   0  0  0  0  0  0
   16.2176   15.0281   31.3014 C   0  0  0  0  0  0
   12.1921   19.4301   28.9115 C   0  0  0  0  0  0
   16.0544   14.8817   29.9272 C   0  0  0  0  0  0
   16.5962   13.9059   35.0900 C   0  0  0  0  0  0
   18.2892   15.0095   33.7492 C   0  0  0  0  0  0
   19.1734   13.9659   34.0068 C   0  0  0  0  0  0
   17.4814   12.8633   35.3476 C   0  0  0  0  0  0
   18.7591   12.8907   34.7910 C   0  0  0  0  0  0
   12.4794   19.3582   31.4973 H   0  0  0  0  0  0
   15.0672   15.6216   28.1708 H   0  0  0  0  0  0
   16.8760   14.3229   31.7801 H   0  0  0  0  0  0
   11.1879   19.0280   28.7944 H   0  0  0  0  0  0
   12.0950   20.4049   29.3868 H   0  0  0  0  0  0
   12.6117   19.5794   27.9161 H   0  0  0  0  0  0
   16.5888   14.1037   29.4004 H   0  0  0  0  0  0
   15.5950   13.8772   35.4950 H   0  0  0  0  0  0
   18.5919   15.8269   33.1118 H   0  0  0  0  0  0
   20.1674   13.9705   33.5805 H   0  0  0  0  0  0
   17.1786   12.0331   35.9683 H   0  0  0  0  0  0
   19.4456   12.0750   34.9701 H   0  0  0  0  0  0
  1  9  2  0  0  0
  1  2  1  0  0  0
  1  3  1  0  0  0
  2  7  1  0  0  0
  2  5  2  0  0  0
  3  6  1  0  0  0
  3 20  1  0  0  0
  4  5  1  0  0  0
  4  6  2  0  0  0
  5 11  1  0  0  0
  6 13  1  0  0  0
  7  8  1  0  0  0
  7 12  2  0  0  0
  8 10  1  0  0  0
 10 15  2  0  0  0
 10 16  1  0  0  0
 11 14  2  0  0  0
 11 21  1  0  0  0
 12 22  1  0  0  0
 12 14  1  0  0  0
 13 23  1  0  0  0
 13 24  1  0  0  0
 13 25  1  0  0  0
 14 26  1  0  0  0
 15 18  1  0  0  0
 15 27  1  0  0  0
 16 17  2  0  0  0
 16 28  1  0  0  0
 17 19  1  0  0  0
 17 29  1  0  0  0
 18 19  2  0  0  0
 18 30  1  0  0  0
 19 31  1  0  0  0
M  END
> <s_m_entry_id>
41304

> <s_m_entry_name>
dock_pv.421

> <s_m_Source_Path>
/home/csk/Desktop/cluster/DUD-E-result/tysy

> <s_m_Source_File>
dock_pv.maegz

> <i_m_Source_File_Index>
421

> <chembl_id>
CHEMBL163535

> <chembl_pref_name>
None

> <i_lp_mmshare_version>
53161

> <r_lp_tautomer_probability>
0.883938

> <s_lp_Force_Field>
OPLS_2005

> <r_lp_Energy>
22.864676

> <b_lp_Chiralities_Consistent>
1

> <s_lp_Variant>
CHEMBL1952_lig394-1

> <s_i_glide_gridfile>
glide-grid_1syn

> <i_i_glide_lignum>
777

> <i_i_glide_rotatable_bonds>
2

> <r_i_docking_score>
-7.30431185429975

> <r_i_glide_ligand_efficiency>
-0.384437466015776

> <r_i_glide_ligand_efficiency_sa>
-1.02583356714015

> <r_i_glide_ligand_efficiency_ln>
-1.8517999372989

> <r_i_glide_gscore>
-7.30431185429975

> <r_i_glide_lipo>
-3.13136973367924

> <r_i_glide_hbond>
0

> <r_i_glide_metal>
0

> <r_i_glide_rewards>
-2.07099860263439

> <r_i_glide_evdw>
-40.8598976135254

> <r_i_glide_ecoul>
-3.69809913635254

> <r_i_glide_erotb>
0.495766233143032

> <r_i_glide_esite>
0

> <r_i_glide_emodel>
-64.1244990837866

> <r_i_glide_energy>
-44.5579967498779

> <r_i_glide_einternal>
1.405641913414

> <i_i_glide_confnum>
4

> <i_i_glide_posenum>
136

> <r_i_glide_eff_state_penalty>
0

> <s_user_duplicate_titles>
CHEMBL1952_lig394,CHEMBL1952_lig394

> <i_f3d_flags>
0

> <s_m_subgroup_title>
dock_pv

> <s_m_subgroupid>
dock_pv

> <b_m_subgroup_collapsed>
1

$$$$
CHEMBL1952_lig433
                    3D
 Schrodinger Suite 2021-1.
 52 53  0  0  1  0            999 V2000
   14.2011   16.3383   30.1589 N   0  0  0  0  0  0
   14.3878   16.8062   31.4187 C   0  0  0  0  0  0
   15.1555   15.5089   29.6777 C   0  0  0  0  0  0
   14.9574    9.7897   37.2857 C   0  0  0  0  0  0
   13.6638    9.4639   37.1267 N   0  0  0  0  0  0
   15.5093   16.4565   32.1952 C   0  0  0  0  0  0
   16.2686   15.1087   30.3312 N   0  0  0  0  0  0
   13.4059    7.1216   36.2985 C   0  0  0  0  0  0
   13.0769    8.1468   37.4117 C   0  0  2  0  0  0
   15.3549   11.1461   36.7663 C   0  0  0  0  0  0
   16.4306   15.5930   31.5868 C   0  0  0  0  0  0
    9.2587    9.0499   36.7724 C   0  0  0  0  0  0
   15.7919    9.0282   37.7763 O   0  0  0  0  0  0
   13.8002    7.4277   35.1911 O   0  0  0  0  0  0
    8.7705    8.9330   37.8950 O   0  0  0  0  0  0
   11.5530    8.3088   37.6495 C   0  0  0  0  0  0
   13.3991   17.6639   31.8894 N   0  0  0  0  0  0
   14.5125   12.2577   36.9104 C   0  0  0  0  0  0
   16.5847   11.2976   36.1163 C   0  0  0  0  0  0
   14.9922   15.0278   28.3912 N   0  0  0  0  0  0
   10.7480    8.8955   36.4635 C   0  0  0  0  0  0
   13.1899    5.8490   36.7475 O   0  0  0  0  0  0
    8.5340    9.3529   35.6597 O   0  0  0  0  0  0
   16.9525   12.5311   35.5911 C   0  0  0  0  0  0
   14.8862   13.4937   36.3891 C   0  0  0  0  0  0
   16.0980   13.6295   35.7046 C   0  0  0  0  0  0
   15.7509   16.9696   33.6168 C   0  0  0  0  0  0
   15.3785   15.9345   34.7022 C   0  0  0  0  0  0
   16.5175   14.9413   35.0455 C   0  0  0  0  0  0
   13.5289    7.7745   38.3340 H   0  0  0  0  0  0
   13.0618   10.1233   36.6606 H   0  0  0  0  0  0
   17.3414   15.2924   32.0822 H   0  0  0  0  0  0
   11.4046    8.9423   38.5262 H   0  0  0  0  0  0
   11.1273    7.3432   37.9300 H   0  0  0  0  0  0
   13.4931   18.0942   32.7965 H   0  0  0  0  0  0
   12.6461   17.9117   31.2649 H   0  0  0  0  0  0
   13.5656   12.1782   37.4252 H   0  0  0  0  0  0
   17.2578   10.4595   35.9988 H   0  0  0  0  0  0
   15.6890   14.3927   28.0301 H   0  0  0  0  0  0
   14.1980   15.3139   27.8348 H   0  0  0  0  0  0
   10.8561    8.2506   35.5917 H   0  0  0  0  0  0
   11.1343    9.8756   36.1824 H   0  0  0  0  0  0
   13.3915    5.1843   36.0780 H   0  0  0  0  0  0
    9.0623    9.4201   34.8608 H   0  0  0  0  0  0
   17.8971   12.6238   35.0735 H   0  0  0  0  0  0
   14.2211   14.3356   36.5085 H   0  0  0  0  0  0
   15.1771   17.8821   33.7796 H   0  0  0  0  0  0
   16.7932   17.2778   33.7158 H   0  0  0  0  0  0
   14.4851   15.3992   34.3788 H   0  0  0  0  0  0
   15.0872   16.4591   35.6122 H   0  0  0  0  0  0
   17.2603   15.4250   35.6805 H   0  0  0  0  0  0
   17.0384   14.6689   34.1301 H   0  0  0  0  0  0
  1  2  2  0  0  0
  1  3  1  0  0  0
  2  6  1  0  0  0
  2 17  1  0  0  0
  3  7  2  0  0  0
  3 20  1  0  0  0
  4 10  1  0  0  0
  4  5  1  0  0  0
  4 13  2  0  0  0
  5  9  1  0  0  0
  5 31  1  0  0  0
  6 27  1  0  0  0
  6 11  2  0  0  0
  7 11  1  0  0  0
  8  9  1  0  0  0
  8 14  2  0  0  0
  8 22  1  0  0  0
  9 16  1  0  0  0
  9 30  1  0  0  0
 10 18  1  0  0  0
 10 19  2  0  0  0
 11 32  1  0  0  0
 12 21  1  0  0  0
 12 15  2  0  0  0
 12 23  1  0  0  0
 16 21  1  0  0  0
 16 33  1  0  0  0
 16 34  1  0  0  0
 17 35  1  0  0  0
 17 36  1  0  0  0
 18 25  2  0  0  0
 18 37  1  0  0  0
 19 24  1  0  0  0
 19 38  1  0  0  0
 20 39  1  0  0  0
 20 40  1  0  0  0
 21 41  1  0  0  0
 21 42  1  0  0  0
 22 43  1  0  0  0
 23 44  1  0  0  0
 24 26  2  0  0  0
 24 45  1  0  0  0
 25 26  1  0  0  0
 25 46  1  0  0  0
 26 29  1  0  0  0
 27 28  1  0  0  0
 27 47  1  0  0  0
 27 48  1  0  0  0
 28 29  1  0  0  0
 28 49  1  0  0  0
 28 50  1  0  0  0
 29 51  1  0  0  0
 29 52  1  0  0  0
M  END
> <s_m_entry_id>
41305

> <s_m_entry_name>
dock_pv.422

> <s_m_Source_Path>
/home/csk/Desktop/cluster/DUD-E-result/tysy

> <s_m_Source_File>
dock_pv.maegz

> <i_m_Source_File_Index>
422

> <chembl_id>
CHEMBL443763

> <chembl_pref_name>
None

> <i_lp_mmshare_version>
53161

> <r_lp_tautomer_probability>
0.999999624730965

> <s_lp_Force_Field>
OPLS_2005

> <r_lp_Energy>
2.17785

> <b_lp_Chiralities_Consistent>
1

> <s_lp_Variant>
CHEMBL1952_lig433-2

> <s_i_glide_gridfile>
glide-grid_1syn

> <i_i_glide_lignum>
846

> <i_i_glide_rotatable_bonds>
13

> <r_i_docking_score>
-7.30281253446512

> <r_i_glide_ligand_efficiency>
-0.251821121878108

> <r_i_glide_ligand_efficiency_sa>
-0.7736742689408

> <r_i_glide_ligand_efficiency_ln>
-1.6721588870447

> <r_i_glide_gscore>
-7.30281253446512

> <r_i_glide_lipo>
-2.97094925538154

> <r_i_glide_hbond>
-0.576

> <r_i_glide_metal>
0

> <r_i_glide_rewards>
-1.28024846498863

> <r_i_glide_evdw>
-39.2795372009277

> <r_i_glide_ecoul>
-12.3371849060059

> <r_i_glide_erotb>
1.33895223440738

> <r_i_glide_esite>
-1.2452555064999e-05

> <r_i_glide_emodel>
-71.7183707902426

> <r_i_glide_energy>
-51.6167221069336

> <r_i_glide_einternal>
6.73468494415283

> <i_i_glide_confnum>
23

> <i_i_glide_posenum>
235

> <r_i_glide_eff_state_penalty>
0

> <s_user_duplicate_titles>
CHEMBL1952_lig433

> <i_f3d_flags>
0

> <s_m_subgroup_title>
dock_pv

> <s_m_subgroupid>
dock_pv

> <b_m_subgroup_collapsed>
1

$$$$
CHEMBL1952_lig30
                    3D
 Schrodinger Suite 2021-1.
 26 28  0  0  1  0            999 V2000
   15.4194   16.4225   31.8229 C   0  0  0  0  0  0
   15.9095   16.5083   33.1873 C   0  0  0  0  0  0
   16.8970   15.7019   33.6503 N   0  0  0  0  0  0
   17.0753   14.6256   31.5116 N   0  0  0  0  0  0
   16.0887   15.4269   31.0310 C   0  0  0  0  0  0
   14.3935   17.2228   31.1952 C   0  0  0  0  0  0
   17.4267   14.8036   32.7972 C   0  0  0  0  0  0
   15.3930   17.4426   34.0324 O   0  0  0  0  0  0
   14.1237   17.0251   29.7986 C   0  0  0  0  0  0
   13.6051   18.2288   31.8536 C   0  0  0  0  0  0
   15.7564   15.2348   29.6844 C   0  0  0  0  0  0
   14.8051   16.0251   29.0781 C   0  0  0  0  0  0
   13.1724   17.8318   29.1279 C   0  0  0  0  0  0
   12.6790   19.0057   31.1634 C   0  0  0  0  0  0
   12.4689   18.8142   29.8074 C   0  0  0  0  0  0
   11.7916   20.2304   31.9940 Cl  0  0  0  0  0  0
   18.5298   13.9020   33.3175 C   0  0  0  0  0  0
   14.6795   17.9424   33.6466 H   0  0  0  0  0  0
   13.6632   18.4523   32.9002 H   0  0  0  0  0  0
   16.2645   14.4663   29.1130 H   0  0  0  0  0  0
   14.5890   15.8716   28.0306 H   0  0  0  0  0  0
   12.9947   17.6836   28.0719 H   0  0  0  0  0  0
   11.7443   19.4264   29.2862 H   0  0  0  0  0  0
   18.7474   14.0796   34.3701 H   0  0  0  0  0  0
   19.4469   14.0565   32.7479 H   0  0  0  0  0  0
   18.2488   12.8548   33.2004 H   0  0  0  0  0  0
  1  2  1  0  0  0
  1  5  2  0  0  0
  1  6  1  0  0  0
  2  3  2  0  0  0
  2  8  1  0  0  0
  3  7  1  0  0  0
  4  5  1  0  0  0
  4  7  2  0  0  0
  5 11  1  0  0  0
  6  9  2  0  0  0
  6 10  1  0  0  0
  7 17  1  0  0  0
  8 18  1  0  0  0
  9 12  1  0  0  0
  9 13  1  0  0  0
 10 14  2  0  0  0
 10 19  1  0  0  0
 11 12  2  0  0  0
 11 20  1  0  0  0
 12 21  1  0  0  0
 13 15  2  0  0  0
 13 22  1  0  0  0
 14 15  1  0  0  0
 14 16  1  0  0  0
 15 23  1  0  0  0
 17 24  1  0  0  0
 17 25  1  0  0  0
 17 26  1  0  0  0
M  END
> <s_m_entry_id>
41308

> <s_m_entry_name>
dock_pv.425

> <s_m_Source_Path>
/home/csk/Desktop/cluster/DUD-E-result/tysy

> <s_m_Source_File>
dock_pv.maegz

> <i_m_Source_File_Index>
425

> <chembl_id>
CHEMBL74724

> <chembl_pref_name>
None

> <i_lp_mmshare_version>
53161

> <r_lp_tautomer_probability>
1

> <s_lp_Force_Field>
OPLS_2005

> <r_lp_Energy>
14.660176

> <b_lp_Chiralities_Consistent>
1

> <s_lp_Variant>
CHEMBL1952_lig30-1

> <s_i_glide_gridfile>
glide-grid_1syn

> <i_i_glide_lignum>
37

> <i_i_glide_rotatable_bonds>
1

> <r_i_docking_score>
-7.29382363569552

> <r_i_glide_ligand_efficiency>
-0.42904844915856

> <r_i_glide_ligand_efficiency_sa>
-1.10320437778

> <r_i_glide_ligand_efficiency_ln>
-1.90279616108645

> <r_i_glide_gscore>
-7.29382363569552

> <r_i_glide_lipo>
-3.07288921316716

> <r_i_glide_hbond>
0

> <r_i_glide_metal>
0

> <r_i_glide_rewards>
-2.12821102908812

> <r_i_glide_evdw>
-35.7298316955566

> <r_i_glide_ecoul>
-2.04154539108276

> <r_i_glide_erotb>
0

> <r_i_glide_esite>
0

> <r_i_glide_emodel>
-55.053770951224

> <r_i_glide_energy>
-37.7713770866394

> <r_i_glide_einternal>
0.000427236023824662

> <i_i_glide_confnum>
1

> <i_i_glide_posenum>
387

> <r_i_glide_eff_state_penalty>
0

> <s_user_duplicate_titles>
CHEMBL1952_lig30

> <i_f3d_flags>
0

> <s_m_subgroup_title>
dock_pv

> <s_m_subgroupid>
dock_pv

> <b_m_subgroup_collapsed>
1

$$$$
CHEMBL1952_lig272
                    3D
 Schrodinger Suite 2021-1.
 56 59  0  0  1  0            999 V2000
   15.0666   16.9691   32.3028 C   0  0  0  0  0  0
   14.1703   18.1027   32.7053 C   0  0  0  0  0  0
   14.9421   16.4598   31.0113 C   0  0  0  0  0  0
   13.3423   18.4944   31.7084 N   0  0  0  0  0  0
   14.0232   16.9943   30.0885 N   0  0  0  0  0  0
   13.2785   17.9794   30.4431 C   0  0  0  0  0  0
   16.8225   15.3932   32.8222 C   0  0  0  0  0  0
   16.0010   16.4565   33.1993 C   0  0  0  0  0  0
   15.7622   15.4106   30.6210 C   0  0  0  0  0  0
   13.0801   12.8331   37.8681 C   0  0  0  0  0  0
   16.6936   14.8749   31.5173 C   0  0  0  0  0  0
   17.8964   14.9213   33.8134 C   0  0  0  0  0  0
   17.6554   13.5973   34.4265 N   0  0  0  0  0  0
   18.9922   11.5301   34.9117 C   0  0  0  0  0  0
   19.4147   10.6165   35.5909 C   0  0  0  0  0  0
   12.9502   11.6707   38.5291 N   0  0  0  0  0  0
   14.2874   12.9728   36.9753 C   0  0  0  0  0  0
   16.5463   13.3621   35.2989 C   0  0  0  0  0  0
   14.1742   18.6291   33.8073 O   0  0  0  0  0  0
   12.3059   13.7773   38.0326 O   0  0  0  0  0  0
   12.8837   14.0174   42.3873 N   0  0  0  0  0  0
   14.9278   11.8771   36.3895 C   0  0  0  0  0  0
   14.7937   14.2458   36.7314 C   0  0  0  0  0  0
   16.0377   12.0757   35.5694 C   0  0  0  0  0  0
   15.9048   14.4359   35.9218 C   0  0  0  0  0  0
   12.6101   12.0923   40.9348 C   0  0  0  0  0  0
   12.0432   11.4818   39.6600 C   0  0  0  0  0  0
   17.7690   13.4435   30.8901 Br  0  0  0  0  0  0
   18.5646   12.5443   33.9448 C   0  0  0  0  0  0
   12.3590   13.4270   41.2804 C   0  0  0  0  0  0
   12.2858   18.5905   29.4827 C   0  0  0  0  0  0
   13.6795   13.2615   43.1871 C   0  0  0  0  0  0
   13.4066   11.3272   41.7901 C   0  0  0  0  0  0
   13.9561   11.9190   42.9257 C   0  0  0  0  0  0
   16.0939   16.8981   34.1803 H   0  0  0  0  0  0
   15.6747   15.0091   29.6226 H   0  0  0  0  0  0
   18.8385   14.9297   33.2622 H   0  0  0  0  0  0
   18.0550   15.6612   34.5988 H   0  0  0  0  0  0
   19.7894    9.8382   36.2095 H   0  0  0  0  0  0
   13.6378   10.9524   38.3642 H   0  0  0  0  0  0
   12.7446   19.2662   31.9554 H   0  0  0  0  0  0
   14.5646   10.8696   36.5348 H   0  0  0  0  0  0
   14.3367   15.1057   37.1912 H   0  0  0  0  0  0
   16.4560   11.2006   35.1004 H   0  0  0  0  0  0
   16.2640   15.4399   35.8040 H   0  0  0  0  0  0
   11.0602   11.9096   39.4487 H   0  0  0  0  0  0
   11.8843   10.4126   39.8045 H   0  0  0  0  0  0
   18.1251   11.9903   33.1196 H   0  0  0  0  0  0
   19.4910   12.9765   33.5627 H   0  0  0  0  0  0
   11.7549   14.0583   40.6451 H   0  0  0  0  0  0
   11.2888   18.1799   29.6431 H   0  0  0  0  0  0
   12.2226   19.6727   29.6052 H   0  0  0  0  0  0
   12.5705   18.3960   28.4476 H   0  0  0  0  0  0
   14.0992   13.7451   44.0578 H   0  0  0  0  0  0
   13.6240   10.2923   41.5651 H   0  0  0  0  0  0
   14.5903   11.3475   43.5864 H   0  0  0  0  0  0
  1  2  1  0  0  0
  1  8  1  0  0  0
  1  3  2  0  0  0
  2 19  2  0  0  0
  2  4  1  0  0  0
  3  9  1  0  0  0
  3  5  1  0  0  0
  4  6  1  0  0  0
  4 41  1  0  0  0
  5  6  2  0  0  0
  6 31  1  0  0  0
  7  8  2  0  0  0
  7 12  1  0  0  0
  7 11  1  0  0  0
  8 35  1  0  0  0
  9 11  2  0  0  0
  9 36  1  0  0  0
 10 17  1  0  0  0
 10 16  1  0  0  0
 10 20  2  0  0  0
 11 28  1  0  0  0
 12 13  1  0  0  0
 12 37  1  0  0  0
 12 38  1  0  0  0
 13 18  1  0  0  0
 13 29  1  0  0  0
 14 29  1  0  0  0
 14 15  3  0  0  0
 15 39  1  0  0  0
 16 27  1  0  0  0
 16 40  1  0  0  0
 17 23  2  0  0  0
 17 22  1  0  0  0
 18 24  1  0  0  0
 18 25  2  0  0  0
 21 30  2  0  0  0
 21 32  1  0  0  0
 22 24  2  0  0  0
 22 42  1  0  0  0
 23 25  1  0  0  0
 23 43  1  0  0  0
 24 44  1  0  0  0
 25 45  1  0  0  0
 26 27  1  0  0  0
 26 30  1  0  0  0
 26 33  2  0  0  0
 27 46  1  0  0  0
 27 47  1  0  0  0
 29 48  1  0  0  0
 29 49  1  0  0  0
 30 50  1  0  0  0
 31 51  1  0  0  0
 31 52  1  0  0  0
 31 53  1  0  0  0
 32 34  2  0  0  0
 32 54  1  0  0  0
 33 34  1  0  0  0
 33 55  1  0  0  0
 34 56  1  0  0  0
M  END
> <s_m_entry_id>
41309

> <s_m_entry_name>
dock_pv.426

> <s_m_Source_Path>
/home/csk/Desktop/cluster/DUD-E-result/tysy

> <s_m_Source_File>
dock_pv.maegz

> <i_m_Source_File_Index>
426

> <chembl_id>
CHEMBL123446

> <chembl_pref_name>
None

> <i_lp_mmshare_version>
53161

> <r_lp_tautomer_probability>
0.883938

> <s_lp_Force_Field>
OPLS_2005

> <r_lp_Energy>
26.599044

> <b_lp_Chiralities_Consistent>
1

> <s_lp_Variant>
CHEMBL1952_lig272-1

> <s_i_glide_gridfile>
glide-grid_1syn

> <i_i_glide_lignum>
541

> <i_i_glide_rotatable_bonds>
9

> <r_i_docking_score>
-7.29243110345705

> <r_i_glide_ligand_efficiency>
-0.214483267748737

> <r_i_glide_ligand_efficiency_sa>
-0.694842524558611

> <r_i_glide_ligand_efficiency_ln>
-1.61110257651769

> <r_i_glide_gscore>
-7.29243110345705

> <r_i_glide_lipo>
-3.72566890200764

> <r_i_glide_hbond>
0

> <r_i_glide_metal>
0

> <r_i_glide_rewards>
-0.563784701733646

> <r_i_glide_evdw>
-61.776439666748

> <r_i_glide_ecoul>
-3.5253758430481

> <r_i_glide_erotb>
0.615777662842673

> <r_i_glide_esite>
-0.00112680276382068

> <r_i_glide_emodel>
-91.0084676761281

> <r_i_glide_energy>
-65.3018155097961

> <r_i_glide_einternal>
6.90920209884644

> <i_i_glide_confnum>
9

> <i_i_glide_posenum>
391

> <r_i_glide_eff_state_penalty>
0

> <s_user_duplicate_titles>
CHEMBL1952_lig272,CHEMBL1952_lig272,201574

> <i_f3d_flags>
0

> <s_m_subgroup_title>
dock_pv

> <s_m_subgroupid>
dock_pv

> <b_m_subgroup_collapsed>
1

$$$$
CHEMBL1952_lig107
                    3D
 Schrodinger Suite 2021-1.
 71 73  0  0  1  0            999 V2000
   12.4718   19.3304   29.8425 N   0  0  0  0  0  0
   12.8585   18.6281   30.9232 C   0  0  0  0  0  0
   13.7511   17.5187   30.8112 C   0  0  0  0  0  0
   12.9921   18.9706   28.6611 C   0  0  0  0  0  0
   13.8563   17.9585   28.4248 N   0  0  0  0  0  0
   12.8024    9.2307   39.7787 C   0  0  0  0  0  0
   13.4295   11.5281   37.6856 C   0  0  0  0  0  0
   14.2601   17.2400   29.5114 C   0  0  0  0  0  0
   14.1921   11.1311   38.7209 N   0  0  0  0  0  0
   13.3247    7.9927   39.6736 N   0  0  0  0  0  0
   15.6062   15.6472   34.3498 N   0  0  0  0  0  0
   15.3895   16.9392   34.6639 C   0  0  0  0  0  0
   11.6696    6.5541   40.9495 C   0  0  0  0  0  0
   13.8228   10.3860   39.9426 C   0  0  1  0  0  0
   12.5753    6.7265   39.7024 C   0  0  2  0  0  0
   14.9920   18.0830   34.7910 C   0  0  0  0  0  0
   15.5232    4.4534   38.3674 C   0  0  0  0  0  0
   14.1959   16.7337   31.8968 C   0  0  0  0  0  0
   14.0472   12.5795   36.7993 C   0  0  0  0  0  0
   15.1075   14.6279   35.1909 C   0  0  0  0  0  0
   12.7501   13.7415   41.6924 C   0  0  0  0  0  0
   16.0855   15.3048   32.9907 C   0  0  0  0  0  0
   11.5948    9.4664   39.8370 O   0  0  0  0  0  0
   12.2567   11.1948   37.5246 O   0  0  0  0  0  0
   15.3034   15.8778   31.7755 C   0  0  0  0  0  0
   15.7919    3.8171   37.1910 O   0  0  0  0  0  0
   11.7912    7.1830   41.9816 O   0  0  0  0  0  0
   15.2431   16.2279   29.3684 C   0  0  0  0  0  0
   16.1919    4.2909   39.3863 O   0  0  0  0  0  0
   12.2209   13.8558   42.7909 O   0  0  0  0  0  0
   15.3935   12.5423   36.3999 C   0  0  0  0  0  0
   13.2443   13.6470   36.3911 C   0  0  0  0  0  0
   15.9159   13.5583   35.5938 C   0  0  0  0  0  0
   13.7705   14.6585   35.6024 C   0  0  0  0  0  0
   12.5920   19.7375   27.5910 N   0  0  0  0  0  0
   13.4462   11.3738   41.0978 C   0  0  0  0  0  0
   13.5818    5.5515   39.6197 C   0  0  0  0  0  0
   12.4743   19.0279   32.1722 O   0  0  0  0  0  0
   14.3396    5.4250   38.2771 C   0  0  0  0  0  0
   12.4983   12.5566   40.7675 C   0  0  0  0  0  0
   10.7295    5.5929   40.7104 O   0  0  0  0  0  0
   15.7823   15.6014   30.4932 C   0  0  0  0  0  0
   13.6568   14.6277   41.1913 O   0  0  0  0  0  0
   15.1429   11.4691   38.7148 H   0  0  0  0  0  0
   14.3275    7.8951   39.6442 H   0  0  0  0  0  0
   14.7540    9.9133   40.2609 H   0  0  0  0  0  0
   11.9309    6.7207   38.8212 H   0  0  0  0  0  0
   14.5921   19.0590   34.7917 H   0  0  0  0  0  0
   13.7001   16.9020   32.8346 H   0  0  0  0  0  0
   16.1920   14.2301   32.8629 H   0  0  0  0  0  0
   17.1139   15.6645   32.9199 H   0  0  0  0  0  0
   15.1328    3.9536   36.4997 H   0  0  0  0  0  0
   15.6335   15.9979   28.3910 H   0  0  0  0  0  0
   16.0426   11.7312   36.6975 H   0  0  0  0  0  0
   12.2034   13.7053   36.6795 H   0  0  0  0  0  0
   16.9504   13.5135   35.2832 H   0  0  0  0  0  0
   13.1211   15.4640   35.2881 H   0  0  0  0  0  0
   12.8174   19.3180   26.7026 H   0  0  0  0  0  0
   11.6537   20.0911   27.7524 H   0  0  0  0  0  0
   12.9887   10.8055   41.9104 H   0  0  0  0  0  0
   14.3567   11.7488   41.5672 H   0  0  0  0  0  0
   14.2889    5.6476   40.4465 H   0  0  0  0  0  0
   13.0650    4.6072   39.7989 H   0  0  0  0  0  0
   11.9519   19.8300   32.1046 H   0  0  0  0  0  0
   13.6486    5.0995   37.4976 H   0  0  0  0  0  0
   14.7342    6.3902   37.9592 H   0  0  0  0  0  0
   12.6063   12.9290   39.7533 H   0  0  0  0  0  0
   11.4596   12.2349   40.8480 H   0  0  0  0  0  0
   10.7801    5.2217   39.8279 H   0  0  0  0  0  0
   16.6060   14.9124   30.3656 H   0  0  0  0  0  0
   13.9579   14.3890   40.3101 H   0  0  0  0  0  0
  1  2  2  0  0  0
  1  4  1  0  0  0
  2  3  1  0  0  0
  2 38  1  0  0  0
  3 18  1  0  0  0
  3  8  2  0  0  0
  4  5  2  0  0  0
  4 35  1  0  0  0
  5  8  1  0  0  0
  6 14  1  0  0  0
  6 10  1  0  0  0
  6 23  2  0  0  0
  7 19  1  0  0  0
  7  9  1  0  0  0
  7 24  2  0  0  0
  8 28  1  0  0  0
  9 14  1  0  0  0
  9 44  1  0  0  0
 10 15  1  0  0  0
 10 45  1  0  0  0
 11 22  1  0  0  0
 11 12  1  0  0  0
 11 20  1  0  0  0
 12 16  3  0  0  0
 13 15  1  0  0  0
 13 27  2  0  0  0
 13 41  1  0  0  0
 14 36  1  0  0  0
 14 46  1  0  0  0
 15 37  1  0  0  0
 15 47  1  0  0  0
 16 48  1  0  0  0
 17 39  1  0  0  0
 17 26  1  0  0  0
 17 29  2  0  0  0
 18 25  2  0  0  0
 18 49  1  0  0  0
 19 32  1  0  0  0
 19 31  2  0  0  0
 20 33  2  0  0  0
 20 34  1  0  0  0
 21 40  1  0  0  0
 21 30  2  0  0  0
 21 43  1  0  0  0
 22 25  1  0  0  0
 22 50  1  0  0  0
 22 51  1  0  0  0
 25 42  1  0  0  0
 26 52  1  0  0  0
 28 42  2  0  0  0
 28 53  1  0  0  0
 31 33  1  0  0  0
 31 54  1  0  0  0
 32 34  2  0  0  0
 32 55  1  0  0  0
 33 56  1  0  0  0
 34 57  1  0  0  0
 35 58  1  0  0  0
 35 59  1  0  0  0
 36 40  1  0  0  0
 36 60  1  0  0  0
 36 61  1  0  0  0
 37 39  1  0  0  0
 37 62  1  0  0  0
 37 63  1  0  0  0
 38 64  1  0  0  0
 39 65  1  0  0  0
 39 66  1  0  0  0
 40 67  1  0  0  0
 40 68  1  0  0  0
 41 69  1  0  0  0
 42 70  1  0  0  0
 43 71  1  0  0  0
M  END
> <s_m_entry_id>
41310

> <s_m_entry_name>
dock_pv.427

> <s_m_Source_Path>
/home/csk/Desktop/cluster/DUD-E-result/tysy

> <s_m_Source_File>
dock_pv.maegz

> <i_m_Source_File_Index>
427

> <chembl_id>
CHEMBL1160189

> <chembl_pref_name>
None

> <i_lp_mmshare_version>
53161

> <r_lp_tautomer_probability>
1

> <s_lp_Force_Field>
OPLS_2005

> <r_lp_Energy>
10.229849

> <b_lp_Chiralities_Consistent>
1

> <s_lp_Variant>
CHEMBL1952_lig107-4

> <s_i_glide_gridfile>
glide-grid_1syn

> <i_i_glide_lignum>
261

> <i_i_glide_rotatable_bonds>
21

> <r_i_docking_score>
-7.28402019160427

> <r_i_glide_ligand_efficiency>
-0.169395818409402

> <r_i_glide_ligand_efficiency_sa>
-0.593460980909077

> <r_i_glide_ligand_efficiency_ln>
-1.52987062392004

> <r_i_glide_gscore>
-7.28402019160427

> <r_i_glide_lipo>
-3.39111349829378

> <r_i_glide_hbond>
-0.278379684440696

> <r_i_glide_metal>
0

> <r_i_glide_rewards>
-0.391256192820863

> <r_i_glide_evdw>
-52.1189041137695

> <r_i_glide_ecoul>
-9.87257766723633

> <r_i_glide_erotb>
0.90440076615864

> <r_i_glide_esite>
-0.0408397264336425

> <r_i_glide_emodel>
-77.1106379383255

> <r_i_glide_energy>
-61.9914817810059

> <r_i_glide_einternal>
16.6106147766113

> <i_i_glide_confnum>
3

> <i_i_glide_posenum>
4

> <r_i_glide_eff_state_penalty>
0

> <s_user_duplicate_titles>
CHEMBL1952_lig107

> <i_f3d_flags>
0

> <s_m_subgroup_title>
dock_pv

> <s_m_subgroupid>
dock_pv

> <b_m_subgroup_collapsed>
1

$$$$
CHEMBL1952_lig345
                    3D
 Schrodinger Suite 2021-1.
 53 56  0  0  1  0            999 V2000
   13.0236   11.9863   38.3129 S   0  0  0  0  0  0
   13.9268   17.8036   32.7816 C   0  0  0  0  0  0
   15.0252   16.8076   32.5126 C   0  0  0  0  0  0
   11.6610   11.6010   37.1970 C   0  0  0  0  0  0
   13.2861   18.1877   31.6523 N   0  0  0  0  0  0
   14.4152   16.8567   30.1403 N   0  0  0  0  0  0
   15.1967   16.3602   31.1987 C   0  0  0  0  0  0
   13.5201   17.7446   30.3806 C   0  0  0  0  0  0
   14.3287   12.5267   37.2193 C   0  0  0  0  0  0
   17.6310   13.6298   34.7915 N   0  0  0  0  0  0
   18.9890   11.5455   34.8889 C   0  0  0  0  0  0
   13.4739   10.7217   38.9084 O   0  0  0  0  0  0
   12.6486   13.1075   39.1832 O   0  0  0  0  0  0
   19.3859   10.6278   35.5875 C   0  0  0  0  0  0
   15.8423   16.3444   33.5447 C   0  0  0  0  0  0
   10.7503   12.5675   36.7336 C   0  0  0  0  0  0
   16.4829   13.2740   35.5675 C   0  0  0  0  0  0
   13.6032   18.2245   33.8850 O   0  0  0  0  0  0
   17.8372   15.0176   34.3543 C   0  0  0  0  0  0
   16.8658   15.4378   33.2547 C   0  0  0  0  0  0
   16.1919   15.4282   30.9167 C   0  0  0  0  0  0
   14.9473   11.5788   36.4130 C   0  0  0  0  0  0
   14.7362   13.8575   37.1704 C   0  0  0  0  0  0
   15.9995   11.9542   35.5906 C   0  0  0  0  0  0
   15.8062   14.2225   36.3529 C   0  0  0  0  0  0
   18.4352   12.6336   34.0589 C   0  0  0  0  0  0
   17.0304   14.9753   31.9400 C   0  0  0  0  0  0
   10.8385   14.2278   37.1910 Cl  0  0  0  0  0  0
   11.5507   10.2847   36.7288 C   0  0  0  0  0  0
   12.6901   18.3360   29.2664 C   0  0  0  0  0  0
    9.7399   12.2010   35.8420 C   0  0  0  0  0  0
   10.5539    9.9355   35.8198 C   0  0  0  0  0  0
    9.6436   10.8916   35.3792 C   0  0  0  0  0  0
   19.7052    9.8333   36.2168 H   0  0  0  0  0  0
   15.7012   16.7067   34.5536 H   0  0  0  0  0  0
   12.5670   18.8758   31.8058 H   0  0  0  0  0  0
   18.8454   15.1386   33.9544 H   0  0  0  0  0  0
   17.8084   15.7089   35.1923 H   0  0  0  0  0  0
   16.3281   15.0794   29.9038 H   0  0  0  0  0  0
   14.6238   10.5482   36.4296 H   0  0  0  0  0  0
   14.2583   14.6060   37.7868 H   0  0  0  0  0  0
   16.4311   11.1822   34.9767 H   0  0  0  0  0  0
   16.1256   15.2505   36.3854 H   0  0  0  0  0  0
   17.8243   12.2045   33.2684 H   0  0  0  0  0  0
   19.2944   13.0890   33.5641 H   0  0  0  0  0  0
   17.8235   14.2793   31.7039 H   0  0  0  0  0  0
   12.2469    9.5249   37.0535 H   0  0  0  0  0  0
   12.7922   19.4206   29.2414 H   0  0  0  0  0  0
   12.9971   17.9555   28.2919 H   0  0  0  0  0  0
   11.6327   18.1050   29.4003 H   0  0  0  0  0  0
    9.0353   12.9406   35.4914 H   0  0  0  0  0  0
   10.4892    8.9257   35.4498 H   0  0  0  0  0  0
    8.8708   10.6204   34.6748 H   0  0  0  0  0  0
  1  4  1  0  0  0
  1  9  1  0  0  0
  1 12  2  0  0  0
  1 13  2  0  0  0
  2 18  2  0  0  0
  2  3  1  0  0  0
  2  5  1  0  0  0
  3 15  1  0  0  0
  3  7  2  0  0  0
  4 16  1  0  0  0
  4 29  2  0  0  0
  5  8  1  0  0  0
  5 36  1  0  0  0
  6  7  1  0  0  0
  6  8  2  0  0  0
  7 21  1  0  0  0
  8 30  1  0  0  0
  9 22  1  0  0  0
  9 23  2  0  0  0
 10 17  1  0  0  0
 10 19  1  0  0  0
 10 26  1  0  0  0
 11 26  1  0  0  0
 11 14  3  0  0  0
 14 34  1  0  0  0
 15 35  1  0  0  0
 15 20  2  0  0  0
 16 28  1  0  0  0
 16 31  2  0  0  0
 17 25  2  0  0  0
 17 24  1  0  0  0
 19 37  1  0  0  0
 19 38  1  0  0  0
 19 20  1  0  0  0
 20 27  1  0  0  0
 21 27  2  0  0  0
 21 39  1  0  0  0
 22 24  2  0  0  0
 22 40  1  0  0  0
 23 25  1  0  0  0
 23 41  1  0  0  0
 24 42  1  0  0  0
 25 43  1  0  0  0
 26 44  1  0  0  0
 26 45  1  0  0  0
 27 46  1  0  0  0
 29 32  1  0  0  0
 29 47  1  0  0  0
 30 48  1  0  0  0
 30 49  1  0  0  0
 30 50  1  0  0  0
 31 33  1  0  0  0
 31 51  1  0  0  0
 32 33  2  0  0  0
 32 52  1  0  0  0
 33 53  1  0  0  0
M  END
> <s_m_entry_id>
41311

> <s_m_entry_name>
dock_pv.428

> <s_m_Source_Path>
/home/csk/Desktop/cluster/DUD-E-result/tysy

> <s_m_Source_File>
dock_pv.maegz

> <i_m_Source_File_Index>
428

> <chembl_id>
CHEMBL159213

> <chembl_pref_name>
None

> <i_lp_mmshare_version>
53161

> <r_lp_tautomer_probability>
0.883938

> <s_lp_Force_Field>
OPLS_2005

> <r_lp_Energy>
24.43434

> <b_lp_Chiralities_Consistent>
1

> <s_lp_Variant>
CHEMBL1952_lig345-1

> <s_i_glide_gridfile>
glide-grid_1syn

> <i_i_glide_lignum>
633

> <i_i_glide_rotatable_bonds>
7

> <r_i_docking_score>
-7.28018071652873

> <r_i_glide_ligand_efficiency>
-0.220611536864507

> <r_i_glide_ligand_efficiency_sa>
-0.707619077261314

> <r_i_glide_ligand_efficiency_ln>
-1.61907449659762

> <r_i_glide_gscore>
-7.28018071652873

> <r_i_glide_lipo>
-3.80733395595055

> <r_i_glide_hbond>
0

> <r_i_glide_metal>
0

> <r_i_glide_rewards>
-0.691418963492133

> <r_i_glide_evdw>
-55.6692123413086

> <r_i_glide_ecoul>
-4.12528228759766

> <r_i_glide_erotb>
0.620825163119031

> <r_i_glide_esite>
0

> <r_i_glide_emodel>
-85.1887090572019

> <r_i_glide_energy>
-59.7944946289062

> <r_i_glide_einternal>
4.16963863372803

> <i_i_glide_confnum>
13

> <i_i_glide_posenum>
3

> <r_i_glide_eff_state_penalty>
0

> <s_user_duplicate_titles>
CHEMBL1952_lig345,CHEMBL1952_lig345,266921

> <i_f3d_flags>
0

> <s_m_subgroup_title>
dock_pv

> <s_m_subgroupid>
dock_pv

> <b_m_subgroup_collapsed>
1

$$$$
CHEMBL1952_lig183
                    3D
 Schrodinger Suite 2021-1.
 61 63  0  0  1  0            999 V2000
   12.9403   18.5467   31.3700 N   0  0  0  0  0  0
   13.1442   18.0384   30.1229 C   0  0  0  0  0  0
   14.0023   17.1032   29.9135 N   0  0  0  0  0  0
   13.5711   18.1865   32.5063 C   0  0  0  0  0  0
   12.2911   18.6052   29.0205 C   0  0  0  0  0  0
   13.2281   18.6268   33.5906 O   0  0  0  0  0  0
   14.6506   17.1660   32.2757 C   0  0  0  0  0  0
   14.7799   16.6323   30.9903 C   0  0  0  0  0  0
   15.7172   15.6282   30.7641 C   0  0  0  0  0  0
   16.5314   15.1870   31.8132 C   0  0  0  0  0  0
   16.4305   15.7628   33.0935 C   0  0  0  0  0  0
   15.4631   16.7416   33.3262 C   0  0  0  0  0  0
   17.3795   15.4081   34.2411 C   0  0  0  0  0  0
   17.8208   14.0038   34.2364 N   0  0  0  0  0  0
   17.1020   13.0509   35.0149 C   0  0  0  0  0  0
   19.2138   13.7341   33.8451 C   0  0  0  0  0  0
   15.8634   13.3792   35.5915 C   0  0  0  0  0  0
   15.1613   12.4711   36.3646 C   0  0  0  0  0  0
   15.6696   11.1872   36.5883 C   0  0  0  0  0  0
   16.8820   10.8288   35.9897 C   0  0  0  0  0  0
   17.5893   11.7491   35.2213 C   0  0  0  0  0  0
   14.9869   10.2510   37.5542 C   0  0  0  0  0  0
   15.6203    9.3580   38.1206 O   0  0  0  0  0  0
   13.6955   10.5201   37.8097 N   0  0  0  0  0  0
   12.9295   10.0077   38.9439 C   0  0  1  0  0  0
   13.1753   10.9922   40.1232 C   0  0  0  0  0  0
   11.4408    9.8512   38.5762 C   0  0  0  0  0  0
   10.7994    9.1135   39.5242 O   0  0  0  0  0  0
   10.9230   10.3154   37.5829 O   0  0  0  0  0  0
   12.9774   10.3997   41.5252 C   0  0  0  0  0  0
   13.5444   11.3184   42.6124 C   0  0  0  0  0  0
   14.1891   10.6286   43.5909 O   0  0  0  0  0  0
   13.3930   12.5376   42.6328 O   0  0  0  0  0  0
   19.8079   14.6275   32.7795 C   0  0  0  0  0  0
   21.0876   14.6280   32.3911 C   0  0  0  0  0  0
   12.2255   19.2433   31.5015 H   0  0  0  0  0  0
   11.2468   18.3431   29.1924 H   0  0  0  0  0  0
   12.3497   19.6950   28.9913 H   0  0  0  0  0  0
   12.5954   18.2283   28.0440 H   0  0  0  0  0  0
   15.8150   15.1971   29.7794 H   0  0  0  0  0  0
   17.2499   14.4043   31.6177 H   0  0  0  0  0  0
   15.3583   17.1816   34.3097 H   0  0  0  0  0  0
   18.2332   16.0854   34.1858 H   0  0  0  0  0  0
   16.9173   15.6531   35.1916 H   0  0  0  0  0  0
   19.8461   13.7897   34.7329 H   0  0  0  0  0  0
   19.3137   12.7212   33.4575 H   0  0  0  0  0  0
   15.3980   14.3400   35.4455 H   0  0  0  0  0  0
   14.2362   12.8074   36.8090 H   0  0  0  0  0  0
   17.3108    9.8500   36.1484 H   0  0  0  0  0  0
   18.5290   11.4189   34.8086 H   0  0  0  0  0  0
   13.2024   11.1712   37.2154 H   0  0  0  0  0  0
   13.3154    9.0161   39.1894 H   0  0  0  0  0  0
   14.1913   11.3854   40.0736 H   0  0  0  0  0  0
   12.5448   11.8765   40.0085 H   0  0  0  0  0  0
    9.8853    8.9825   39.2666 H   0  0  0  0  0  0
   11.9263   10.2007   41.7104 H   0  0  0  0  0  0
   13.4734    9.4335   41.5714 H   0  0  0  0  0  0
   14.5612   11.1930   44.2857 H   0  0  0  0  0  0
   19.1358   15.3009   32.2769 H   0  0  0  0  0  0
   21.3933   15.2878   31.5973 H   0  0  0  0  0  0
   21.8271   13.9776   32.8341 H   0  0  0  0  0  0
  1  2  1  0  0  0
  1  4  1  0  0  0
  1 36  1  0  0  0
  2  5  1  0  0  0
  2  3  2  0  0  0
  3  8  1  0  0  0
  4  7  1  0  0  0
  4  6  2  0  0  0
  5 37  1  0  0  0
  5 38  1  0  0  0
  5 39  1  0  0  0
  7 12  1  0  0  0
  7  8  2  0  0  0
  8  9  1  0  0  0
  9 10  2  0  0  0
  9 40  1  0  0  0
 10 11  1  0  0  0
 10 41  1  0  0  0
 11 12  2  0  0  0
 11 13  1  0  0  0
 12 42  1  0  0  0
 13 14  1  0  0  0
 13 43  1  0  0  0
 13 44  1  0  0  0
 14 15  1  0  0  0
 14 16  1  0  0  0
 15 17  2  0  0  0
 15 21  1  0  0  0
 16 34  1  0  0  0
 16 45  1  0  0  0
 16 46  1  0  0  0
 17 18  1  0  0  0
 17 47  1  0  0  0
 18 19  2  0  0  0
 18 48  1  0  0  0
 19 20  1  0  0  0
 19 22  1  0  0  0
 20 21  2  0  0  0
 20 49  1  0  0  0
 21 50  1  0  0  0
 22 23  2  0  0  0
 22 24  1  0  0  0
 24 25  1  0  0  0
 24 51  1  0  0  0
 25 26  1  0  0  0
 25 27  1  0  0  0
 25 52  1  0  0  0
 26 30  1  0  0  0
 26 53  1  0  0  0
 26 54  1  0  0  0
 27 28  1  0  0  0
 27 29  2  0  0  0
 28 55  1  0  0  0
 30 31  1  0  0  0
 30 56  1  0  0  0
 30 57  1  0  0  0
 31 32  1  0  0  0
 31 33  2  0  0  0
 32 58  1  0  0  0
 34 35  2  0  0  0
 34 59  1  0  0  0
 35 60  1  0  0  0
 35 61  1  0  0  0
M  END
> <s_m_entry_id>
41312

> <s_m_entry_name>
dock_pv.429

> <s_m_Source_Path>
/home/csk/Desktop/cluster/DUD-E-result/tysy

> <s_m_Source_File>
dock_pv.maegz

> <i_m_Source_File_Index>
429

> <chembl_id>
CHEMBL323539

> <chembl_pref_name>
None

> <i_lp_mmshare_version>
53161

> <r_lp_tautomer_probability>
0.883938

> <s_lp_Force_Field>
OPLS_2005

> <r_lp_Energy>
22.604031

> <b_lp_Chiralities_Consistent>
1

> <s_lp_Variant>
CHEMBL1952_lig183-1

> <s_i_glide_gridfile>
glide-grid_1syn

> <i_i_glide_lignum>
363

> <i_i_glide_rotatable_bonds>
14

> <r_i_docking_score>
-7.2683765309836

> <r_i_glide_ligand_efficiency>
-0.207667900885246

> <r_i_glide_ligand_efficiency_sa>
-0.679295473488267

> <r_i_glide_ligand_efficiency_ln>
-1.5955699614767

> <r_i_glide_gscore>
-7.2683765309836

> <r_i_glide_lipo>
-3.34265929710018

> <r_i_glide_hbond>
-0.304

> <r_i_glide_metal>
0

> <r_i_glide_rewards>
-0.787992996483191

> <r_i_glide_evdw>
-44.6073951721191

> <r_i_glide_ecoul>
-11.1015062332153

> <r_i_glide_erotb>
1.06210332364591

> <r_i_glide_esite>
-0.00023186745788331

> <r_i_glide_emodel>
-71.4730134118878

> <r_i_glide_energy>
-55.7089014053345

> <r_i_glide_einternal>
13.3739452362061

> <i_i_glide_confnum>
26

> <i_i_glide_posenum>
56

> <r_i_glide_eff_state_penalty>
0

> <s_user_duplicate_titles>
CHEMBL1952_lig183,170780

> <i_f3d_flags>
0

> <s_m_subgroup_title>
dock_pv

> <s_m_subgroupid>
dock_pv

> <b_m_subgroup_collapsed>
1

$$$$
CHEMBL1952_lig14
                    3D
 Schrodinger Suite 2021-1.
 52 54  0  0  1  0            999 V2000
   15.4916   15.7795   30.9004 C   0  0  0  0  0  0
   14.4459   16.3268   30.2179 N   0  0  0  0  0  0
   15.9206   16.1398   32.1768 C   0  0  0  0  0  0
   15.1854   17.1985   32.8749 C   0  0  0  0  0  0
   14.1582   17.6662   32.0961 N   0  0  0  0  0  0
   13.7981   17.2637   30.8225 C   0  0  0  0  0  0
   16.3087   14.7904   30.4345 N   0  0  0  0  0  0
   17.0567   15.3627   32.5038 C   0  0  0  0  0  0
   15.6324    9.7198   36.2964 C   0  0  0  0  0  0
   15.2312    9.7768   37.5762 N   0  0  0  0  0  0
   17.2523   14.5268   31.3986 C   0  0  0  0  0  0
   14.1508    9.3574   39.6907 C   0  0  0  0  0  0
   14.4476    8.7670   38.2996 C   0  0  2  0  0  0
   15.3905    4.9971   39.1028 C   0  0  0  0  0  0
   15.3904   17.6702   33.9909 O   0  0  0  0  0  0
   16.4478   10.8931   35.8307 C   0  0  0  0  0  0
   12.8567    9.7896   39.7653 O   0  0  0  0  0  0
   15.3928    8.7767   35.5420 O   0  0  0  0  0  0
   15.2164    4.2227   37.9917 O   0  0  0  0  0  0
   14.9844    9.4280   40.5718 O   0  0  0  0  0  0
   17.9165   15.4702   33.7565 C   0  0  0  0  0  0
   12.7024   17.8968   30.2063 N   0  0  0  0  0  0
   16.1920    4.7298   39.9950 O   0  0  0  0  0  0
   15.2111    7.4105   38.3658 C   0  0  0  0  0  0
   15.9741   12.2007   35.9940 C   0  0  0  0  0  0
   17.6730   10.6772   35.1910 C   0  0  0  0  0  0
   14.5127    6.2519   39.1051 C   0  0  0  0  0  0
   17.8903   13.0532   34.7859 C   0  0  0  0  0  0
   18.6950   14.1948   34.1616 C   0  0  0  0  0  0
   18.3914   11.7538   34.6783 C   0  0  0  0  0  0
   16.6904   13.2728   35.4733 C   0  0  0  0  0  0
   13.6183   18.3980   32.5288 H   0  0  0  0  0  0
   16.2258   14.3385   29.5350 H   0  0  0  0  0  0
   15.4906   10.5926   38.1113 H   0  0  0  0  0  0
   18.0084   13.7758   31.2142 H   0  0  0  0  0  0
   13.5173    8.6031   37.7508 H   0  0  0  0  0  0
   12.3713    9.6640   38.9470 H   0  0  0  0  0  0
   14.5627    4.5458   37.3650 H   0  0  0  0  0  0
   17.3315   15.8284   34.6000 H   0  0  0  0  0  0
   18.6473   16.2597   33.5933 H   0  0  0  0  0  0
   12.5615   17.7553   29.2172 H   0  0  0  0  0  0
   12.4570   18.8357   30.4848 H   0  0  0  0  0  0
   16.1916    7.5683   38.8133 H   0  0  0  0  0  0
   15.3916    7.0615   37.3494 H   0  0  0  0  0  0
   15.0321   12.3932   36.4879 H   0  0  0  0  0  0
   18.0655    9.6783   35.0566 H   0  0  0  0  0  0
   13.5394    6.0303   38.6630 H   0  0  0  0  0  0
   14.3300    6.5264   40.1453 H   0  0  0  0  0  0
   19.4639   14.4703   34.8830 H   0  0  0  0  0  0
   19.2469   13.8229   33.2951 H   0  0  0  0  0  0
   19.3300   11.5729   34.1699 H   0  0  0  0  0  0
   16.2845   14.2634   35.6012 H   0  0  0  0  0  0
  1  2  1  0  0  0
  1  3  2  0  0  0
  1  7  1  0  0  0
  2  6  2  0  0  0
  3  4  1  0  0  0
  3  8  1  0  0  0
  4 15  2  0  0  0
  4  5  1  0  0  0
  5  6  1  0  0  0
  5 32  1  0  0  0
  6 22  1  0  0  0
  7 11  1  0  0  0
  7 33  1  0  0  0
  8 21  1  0  0  0
  8 11  2  0  0  0
  9 16  1  0  0  0
  9 10  1  0  0  0
  9 18  2  0  0  0
 10 13  1  0  0  0
 10 34  1  0  0  0
 11 35  1  0  0  0
 12 13  1  0  0  0
 12 17  1  0  0  0
 12 20  2  0  0  0
 13 24  1  0  0  0
 13 36  1  0  0  0
 14 27  1  0  0  0
 14 19  1  0  0  0
 14 23  2  0  0  0
 16 26  2  0  0  0
 16 25  1  0  0  0
 17 37  1  0  0  0
 19 38  1  0  0  0
 21 29  1  0  0  0
 21 39  1  0  0  0
 21 40  1  0  0  0
 22 41  1  0  0  0
 22 42  1  0  0  0
 24 27  1  0  0  0
 24 43  1  0  0  0
 24 44  1  0  0  0
 25 31  2  0  0  0
 25 45  1  0  0  0
 26 30  1  0  0  0
 26 46  1  0  0  0
 27 47  1  0  0  0
 27 48  1  0  0  0
 28 29  1  0  0  0
 28 30  2  0  0  0
 28 31  1  0  0  0
 29 49  1  0  0  0
 29 50  1  0  0  0
 30 51  1  0  0  0
 31 52  1  0  0  0
M  END
> <s_m_entry_id>
41316

> <s_m_entry_name>
dock_pv.433

> <s_m_Source_Path>
/home/csk/Desktop/cluster/DUD-E-result/tysy

> <s_m_Source_File>
dock_pv.maegz

> <i_m_Source_File_Index>
433

> <chembl_id>
CHEMBL225072

> <chembl_pref_name>
PEMETREXED

> <i_lp_mmshare_version>
53161

> <r_lp_tautomer_probability>
1

> <s_lp_Force_Field>
OPLS_2005

> <r_lp_Energy>
14.844009

> <b_lp_Chiralities_Consistent>
1

> <s_lp_Variant>
CHEMBL1952_lig14-1

> <s_i_glide_gridfile>
glide-grid_1syn

> <i_i_glide_lignum>
15

> <i_i_glide_rotatable_bonds>
12

> <r_i_docking_score>
-7.22047118801925

> <r_i_glide_ligand_efficiency>
-0.232918425419976

> <r_i_glide_ligand_efficiency_sa>
-0.731685434362246

> <r_i_glide_ligand_efficiency_ln>
-1.62843753376543

> <r_i_glide_gscore>
-7.22047118801925

> <r_i_glide_lipo>
-2.64085154370429

> <r_i_glide_hbond>
0

> <r_i_glide_metal>
0

> <r_i_glide_rewards>
-1.48656597124539

> <r_i_glide_evdw>
-54.8450546264648

> <r_i_glide_ecoul>
-9.58437728881836

> <r_i_glide_erotb>
1.08685565157643

> <r_i_glide_esite>
0

> <r_i_glide_emodel>
-89.8245146833711

> <r_i_glide_energy>
-64.4294319152832

> <r_i_glide_einternal>
8.07197570800781

> <i_i_glide_confnum>
208

> <i_i_glide_posenum>
188

> <r_i_glide_eff_state_penalty>
0

> <s_user_duplicate_titles>
CHEMBL1952_lig14,CHEMBL1952_lig308

> <i_f3d_flags>
0

> <s_m_subgroup_title>
dock_pv

> <s_m_subgroupid>
dock_pv

> <b_m_subgroup_collapsed>
1

$$$$
CHEMBL1952_lig297
                    3D
 Schrodinger Suite 2021-1.
 35 38  0  0  1  0            999 V2000
   17.7803   11.6983   35.3271 N   0  0  0  0  0  0
   16.5935   11.5273   35.9913 C   0  0  0  0  0  0
   15.8806   12.7558   35.9646 C   0  0  0  0  0  0
   16.6529   13.6785   35.1894 C   0  0  0  0  0  0
   16.4885   15.0020   34.6895 C   0  0  0  0  0  0
   17.5477   15.5869   33.9904 C   0  0  0  0  0  0
   18.7175   14.8947   33.7156 C   0  0  0  0  0  0
   18.8939   13.5766   34.1135 C   0  0  0  0  0  0
   17.8607   12.9856   34.8436 C   0  0  0  0  0  0
   14.9907   10.5055   37.1871 C   0  0  0  0  0  0
   16.1916   10.3927   36.5733 N   0  0  0  0  0  0
   14.6518   12.7264   36.6617 C   0  0  0  0  0  0
   14.2067   11.6022   37.2722 N   0  0  0  0  0  0
   14.5017    9.3591   37.7891 N   0  0  0  0  0  0
   13.8227   13.8285   36.7829 N   0  0  0  0  0  0
   14.9919   15.9461   34.8791 S   0  0  0  0  0  0
   14.6267   16.6251   33.2747 C   0  0  0  0  0  0
   15.0000   15.9549   32.1053 C   0  0  0  0  0  0
   14.6259   16.4580   30.8634 C   0  0  0  0  0  0
   13.8774   17.6302   30.7901 C   0  0  0  0  0  0
   13.8883   17.8081   33.1964 C   0  0  0  0  0  0
   13.5144   18.3122   31.9516 C   0  0  0  0  0  0
   13.3922   18.2280   29.2449 Cl  0  0  0  0  0  0
   18.4851   10.9865   35.2051 H   0  0  0  0  0  0
   17.4546   16.5989   33.6236 H   0  0  0  0  0  0
   19.4985   15.3818   33.1518 H   0  0  0  0  0  0
   19.7923   13.0341   33.8532 H   0  0  0  0  0  0
   14.9413    8.4918   37.5272 H   0  0  0  0  0  0
   13.5330    9.3883   38.0648 H   0  0  0  0  0  0
   14.1017   14.6921   36.3336 H   0  0  0  0  0  0
   12.9533   13.7354   37.2824 H   0  0  0  0  0  0
   15.5525   15.0288   32.1499 H   0  0  0  0  0  0
   14.9017   15.9312   29.9612 H   0  0  0  0  0  0
   13.5896   18.3309   34.0945 H   0  0  0  0  0  0
   12.9378   19.2244   31.8888 H   0  0  0  0  0  0
  1  2  1  0  0  0
  1  9  1  0  0  0
  1 24  1  0  0  0
  2  3  1  0  0  0
  2 11  2  0  0  0
  3  4  1  0  0  0
  3 12  2  0  0  0
  4  5  1  0  0  0
  4  9  2  0  0  0
  5  6  2  0  0  0
  5 16  1  0  0  0
  6  7  1  0  0  0
  6 25  1  0  0  0
  7  8  2  0  0  0
  7 26  1  0  0  0
  8  9  1  0  0  0
  8 27  1  0  0  0
 10 11  1  0  0  0
 10 13  2  0  0  0
 10 14  1  0  0  0
 12 13  1  0  0  0
 12 15  1  0  0  0
 14 28  1  0  0  0
 14 29  1  0  0  0
 15 30  1  0  0  0
 15 31  1  0  0  0
 16 17  1  0  0  0
 17 21  1  0  0  0
 17 18  2  0  0  0
 18 19  1  0  0  0
 18 32  1  0  0  0
 19 20  2  0  0  0
 19 33  1  0  0  0
 20 22  1  0  0  0
 20 23  1  0  0  0
 21 22  2  0  0  0
 21 34  1  0  0  0
 22 35  1  0  0  0
M  END
> <s_m_entry_id>
41317

> <s_m_entry_name>
dock_pv.434

> <s_m_Source_Path>
/home/csk/Desktop/cluster/DUD-E-result/tysy

> <s_m_Source_File>
dock_pv.maegz

> <i_m_Source_File_Index>
434

> <chembl_id>
CHEMBL4079829

> <chembl_pref_name>
None

> <i_lp_mmshare_version>
53161

> <r_lp_tautomer_probability>
1

> <s_lp_Force_Field>
OPLS_2005

> <r_lp_Energy>
10.25424

> <b_lp_Chiralities_Consistent>
1

> <s_lp_Variant>
CHEMBL1952_lig297-1

> <s_i_glide_gridfile>
glide-grid_1syn

> <i_i_glide_lignum>
567

> <i_i_glide_rotatable_bonds>
2

> <r_i_docking_score>
-7.21952184252957

> <r_i_glide_ligand_efficiency>
-0.313892254023025

> <r_i_glide_ligand_efficiency_sa>
-0.892667815514275

> <r_i_glide_ligand_efficiency_ln>
-1.74574584452841

> <r_i_glide_gscore>
-7.21952184252957

> <r_i_glide_lipo>
-3.45521505446848

> <r_i_glide_hbond>
0

> <r_i_glide_metal>
0

> <r_i_glide_rewards>
-1.59866267612953

> <r_i_glide_evdw>
-44.3245887756348

> <r_i_glide_ecoul>
-1.82580649852753

> <r_i_glide_erotb>
0.324456301629304

> <r_i_glide_esite>
0

> <r_i_glide_emodel>
-66.3178112308098

> <r_i_glide_energy>
-46.1503952741623

> <r_i_glide_einternal>
0.321940153837204

> <i_i_glide_confnum>
5

> <i_i_glide_posenum>
82

> <r_i_glide_eff_state_penalty>
0

> <s_user_duplicate_titles>
CHEMBL1952_lig297

> <i_f3d_flags>
0

> <s_m_subgroup_title>
dock_pv

> <s_m_subgroupid>
dock_pv

> <b_m_subgroup_collapsed>
1

$$$$
CHEMBL1952_lig83
                    3D
 Schrodinger Suite 2021-1.
 26 28  0  0  1  0            999 V2000
   15.5313   16.2200   31.5231 C   0  0  0  0  0  0
   16.3121   15.1637   30.9007 C   0  0  0  0  0  0
   17.2258   14.4398   31.5871 N   0  0  0  0  0  0
   16.7436   15.6747   33.5937 N   0  0  0  0  0  0
   15.8200   16.4134   32.9160 C   0  0  0  0  0  0
   14.5423   17.0682   30.9033 C   0  0  0  0  0  0
   17.3942   14.7257   32.8912 C   0  0  0  0  0  0
   13.8723   18.0699   31.6909 C   0  0  0  0  0  0
   14.2016   18.2093   33.0584 C   0  0  0  0  0  0
   16.1436   14.8624   29.5832 O   0  0  0  0  0  0
   15.1490   17.4000   33.6547 C   0  0  0  0  0  0
   12.8968   18.9255   31.0879 C   0  0  0  0  0  0
   12.0930   20.1710   31.9868 Cl  0  0  0  0  0  0
   14.1823   16.9992   29.5176 C   0  0  0  0  0  0
   18.4040   13.8827   33.6497 C   0  0  0  0  0  0
   13.2352   17.8500   28.9636 C   0  0  0  0  0  0
   12.5896   18.7930   29.7400 C   0  0  0  0  0  0
   13.7163   18.9679   33.6564 H   0  0  0  0  0  0
   16.7307   14.1462   29.3289 H   0  0  0  0  0  0
   15.3791   17.5317   34.7019 H   0  0  0  0  0  0
   14.6212   16.3046   28.8293 H   0  0  0  0  0  0
   18.8815   13.1361   33.0119 H   0  0  0  0  0  0
   17.9169   13.3576   34.4728 H   0  0  0  0  0  0
   19.1883   14.5120   34.0733 H   0  0  0  0  0  0
   12.9966   17.7790   27.9121 H   0  0  0  0  0  0
   11.8438   19.4336   29.2878 H   0  0  0  0  0  0
  1  2  1  0  0  0
  1  5  2  0  0  0
  1  6  1  0  0  0
  2  3  2  0  0  0
  2 10  1  0  0  0
  3  7  1  0  0  0
  4  5  1  0  0  0
  4  7  2  0  0  0
  5 11  1  0  0  0
  6  8  2  0  0  0
  6 14  1  0  0  0
  7 15  1  0  0  0
  8  9  1  0  0  0
  8 12  1  0  0  0
  9 11  2  0  0  0
  9 18  1  0  0  0
 10 19  1  0  0  0
 11 20  1  0  0  0
 12 13  1  0  0  0
 12 17  2  0  0  0
 14 16  2  0  0  0
 14 21  1  0  0  0
 15 22  1  0  0  0
 15 23  1  0  0  0
 15 24  1  0  0  0
 16 17  1  0  0  0
 16 25  1  0  0  0
 17 26  1  0  0  0
M  END
> <s_m_entry_id>
41319

> <s_m_entry_name>
dock_pv.436

> <s_m_Source_Path>
/home/csk/Desktop/cluster/DUD-E-result/tysy

> <s_m_Source_File>
dock_pv.maegz

> <i_m_Source_File_Index>
436

> <chembl_id>
CHEMBL307586

> <chembl_pref_name>
None

> <i_lp_mmshare_version>
53161

> <r_lp_tautomer_probability>
1

> <s_lp_Force_Field>
OPLS_2005

> <r_lp_Energy>
16.823903

> <b_lp_Chiralities_Consistent>
1

> <s_lp_Variant>
CHEMBL1952_lig83-1

> <s_i_glide_gridfile>
glide-grid_1syn

> <i_i_glide_lignum>
133

> <i_i_glide_rotatable_bonds>
1

> <r_i_docking_score>
-7.21687706249187

> <r_i_glide_ligand_efficiency>
-0.42452218014658

> <r_i_glide_ligand_efficiency_sa>
-1.09156606560612

> <r_i_glide_ligand_efficiency_ln>
-1.88272251365355

> <r_i_glide_gscore>
-7.21687706249187

> <r_i_glide_lipo>
-3.05263388121973

> <r_i_glide_hbond>
0

> <r_i_glide_metal>
0

> <r_i_glide_rewards>
-2.07678732447206

> <r_i_glide_evdw>
-37.257080078125

> <r_i_glide_ecoul>
-1.49734568595886

> <r_i_glide_erotb>
0

> <r_i_glide_esite>
0

> <r_i_glide_emodel>
-55.5342577658259

> <r_i_glide_energy>
-38.7544257640839

> <r_i_glide_einternal>
0.909009039402008

> <i_i_glide_confnum>
1

> <i_i_glide_posenum>
96

> <r_i_glide_eff_state_penalty>
0

> <s_user_duplicate_titles>
CHEMBL1952_lig83

> <i_f3d_flags>
0

> <s_m_subgroup_title>
dock_pv

> <s_m_subgroupid>
dock_pv

> <b_m_subgroup_collapsed>
1

$$$$
CHEMBL1952_lig318 
                    3D
 Schrodinger Suite 2021-1.
 50 53  0  0  1  0            999 V2000
   14.0914   17.8153   31.6850 N   0  0  0  0  0  0
   13.7455   17.3758   30.4205 C   0  0  0  0  0  0
   14.3823   16.4029   29.8610 N   0  0  0  0  0  0
   15.0882   17.3478   32.5039 C   0  0  0  0  0  0
   15.7921   16.2279   31.8694 C   0  0  0  0  0  0
   15.3921   15.8457   30.5887 C   0  0  0  0  0  0
   16.1925   14.8220   30.1722 N   0  0  0  0  0  0
   17.0929   14.5514   31.1740 C   0  0  0  0  0  0
   16.8675   15.3974   32.2641 C   0  0  0  0  0  0
   15.3110   17.8751   33.5905 O   0  0  0  0  0  0
   12.6781   18.0104   29.7569 N   0  0  0  0  0  0
   17.6369   15.4061   33.5742 C   0  0  0  0  0  0
   16.9795   14.4911   34.5964 C   0  0  0  0  0  0
   17.4119   13.1720   34.7522 C   0  0  0  0  0  0
   16.7129   12.3046   35.5909 C   0  0  0  0  0  0
   15.5765   12.7471   36.2835 C   0  0  0  0  0  0
   15.1913   14.0920   36.1670 C   0  0  0  0  0  0
   15.8847   14.9528   35.3266 C   0  0  0  0  0  0
   14.7780   11.7795   37.1271 C   0  0  0  0  0  0
   15.2820   10.7548   37.5910 O   0  0  0  0  0  0
   13.4830   12.0988   37.3027 N   0  0  0  0  0  0
   12.5161   11.3146   38.0643 C   0  0  0  0  0  0
   11.2350   12.1121   38.3196 C   0  0  0  0  0  0
   11.0464   12.9981   39.4146 C   0  0  0  0  0  0
    9.7868   13.5987   39.5782 C   0  0  0  0  0  0
    8.7450   13.3542   38.6882 C   0  0  0  0  0  0
    8.9389   12.4985   37.6120 C   0  0  0  0  0  0
   10.1717   11.8792   37.4356 C   0  0  0  0  0  0
   12.1123   13.3271   40.4377 C   0  0  0  0  0  0
   13.3913   13.2915   39.9760 O   0  0  0  0  0  0
   11.8276   13.6614   41.5900 O   0  0  0  0  0  0
   13.5763   18.5901   32.0719 H   0  0  0  0  0  0
   16.1263   14.3537   29.2798 H   0  0  0  0  0  0
   17.8240   13.7645   31.0401 H   0  0  0  0  0  0
   12.5526   17.8334   28.7716 H   0  0  0  0  0  0
   12.4358   18.9600   30.0002 H   0  0  0  0  0  0
   17.7009   16.4136   33.9880 H   0  0  0  0  0  0
   18.6717   15.0969   33.4172 H   0  0  0  0  0  0
   18.2608   12.8047   34.1916 H   0  0  0  0  0  0
   17.0449   11.2788   35.6737 H   0  0  0  0  0  0
   14.3438   14.4889   36.7073 H   0  0  0  0  0  0
   15.5469   15.9731   35.2278 H   0  0  0  0  0  0
   13.0985   12.7829   36.6664 H   0  0  0  0  0  0
   12.9364   10.9398   39.0008 H   0  0  0  0  0  0
   12.2788   10.4130   37.4940 H   0  0  0  0  0  0
    9.6028   14.2821   40.3951 H   0  0  0  0  0  0
    7.7867   13.8326   38.8276 H   0  0  0  0  0  0
    8.1326   12.3097   36.9175 H   0  0  0  0  0  0
   10.2940   11.2072   36.5972 H   0  0  0  0  0  0
   13.4193   13.0324   39.0497 H   0  0  0  0  0  0
  1  2  1  0  0  0
  1  4  1  0  0  0
  1 32  1  0  0  0
  2  3  2  0  0  0
  2 11  1  0  0  0
  3  6  1  0  0  0
  4  5  1  0  0  0
  4 10  2  0  0  0
  5  6  2  0  0  0
  5  9  1  0  0  0
  6  7  1  0  0  0
  7  8  1  0  0  0
  7 33  1  0  0  0
  8  9  2  0  0  0
  8 34  1  0  0  0
  9 12  1  0  0  0
 11 35  1  0  0  0
 11 36  1  0  0  0
 12 13  1  0  0  0
 12 37  1  0  0  0
 12 38  1  0  0  0
 13 14  2  0  0  0
 13 18  1  0  0  0
 14 15  1  0  0  0
 14 39  1  0  0  0
 15 16  2  0  0  0
 15 40  1  0  0  0
 16 17  1  0  0  0
 16 19  1  0  0  0
 17 18  2  0  0  0
 17 41  1  0  0  0
 18 42  1  0  0  0
 19 20  2  0  0  0
 19 21  1  0  0  0
 21 22  1  0  0  0
 21 43  1  0  0  0
 22 23  1  0  0  0
 22 44  1  0  0  0
 22 45  1  0  0  0
 23 24  2  0  0  0
 23 28  1  0  0  0
 24 25  1  0  0  0
 24 29  1  0  0  0
 25 26  2  0  0  0
 25 46  1  0  0  0
 26 27  1  0  0  0
 26 47  1  0  0  0
 27 28  2  0  0  0
 27 48  1  0  0  0
 28 49  1  0  0  0
 29 30  1  0  0  0
 29 31  2  0  0  0
 30 50  1  0  0  0
M  END
> <s_m_entry_id>
41320

> <s_m_entry_name>
dock_pv.437

> <s_m_Source_Path>
/home/csk/Desktop/cluster/DUD-E-result/tysy

> <s_m_Source_File>
dock_pv.maegz

> <i_m_Source_File_Index>
437

> <chembl_id>
CHEMBL4570248

> <chembl_pref_name>
None

> <i_lp_mmshare_version>
53161

> <r_lp_tautomer_probability>
1

> <s_lp_Force_Field>
OPLS_2005

> <r_lp_Energy>
27.902061

> <b_lp_Chiralities_Consistent>
1

> <s_lp_Variant>
CHEMBL1952_lig318 -1

> <s_i_glide_gridfile>
glide-grid_1syn

> <i_i_glide_lignum>
590

> <i_i_glide_rotatable_bonds>
8

> <r_i_docking_score>
-7.2162498188788

> <r_i_glide_ligand_efficiency>
-0.232782252221897

> <r_i_glide_ligand_efficiency_sa>
-0.731257662512917

> <r_i_glide_ligand_efficiency_ln>
-1.62748548565483

> <r_i_glide_gscore>
-7.2162498188788

> <r_i_glide_lipo>
-2.82787733793416

> <r_i_glide_hbond>
-0.0973439054220974

> <r_i_glide_metal>
0

> <r_i_glide_rewards>
-1.42602688279708

> <r_i_glide_evdw>
-52.758544921875

> <r_i_glide_ecoul>
-6.5830864906311

> <r_i_glide_erotb>
0.794058724171146

> <r_i_glide_esite>
-0.0336701972081921

> <r_i_glide_emodel>
-84.090514322258

> <r_i_glide_energy>
-59.3416314125061

> <r_i_glide_einternal>
5.24272394180298

> <i_i_glide_confnum>
134

> <i_i_glide_posenum>
92

> <r_i_glide_eff_state_penalty>
0

> <s_user_duplicate_titles>
CHEMBL1952_lig318 

> <i_f3d_flags>
0

> <s_m_subgroup_title>
dock_pv

> <s_m_subgroupid>
dock_pv

> <b_m_subgroup_collapsed>
1

$$$$
CHEMBL1952_lig477
                    3D
 Schrodinger Suite 2021-1.
 19 21  0  0  1  0            999 V2000
   13.0237   18.7227   31.7511 C   0  0  0  0  0  0
   12.5900   18.6425   30.4154 C   0  0  0  0  0  0
   13.1534   17.7202   29.5116 C   0  0  0  0  0  0
   14.1837   16.8445   29.9519 C   0  0  0  0  0  0
   14.8730   15.8497   29.2007 C   0  0  0  0  0  0
   15.8743   15.0732   29.8185 C   0  0  0  0  0  0
   16.2210   15.2568   31.1691 C   0  0  0  0  0  0
   14.0359   17.8666   32.1888 C   0  0  0  0  0  0
   14.5686   16.9768   31.2938 C   0  0  0  0  0  0
   15.5405   16.2290   31.8984 C   0  0  0  0  0  0
   15.6764   16.6157   33.2061 O   0  0  0  0  0  0
   14.7648   17.6245   33.4547 C   0  0  0  0  0  0
   14.6433   18.1666   34.5479 O   0  0  0  0  0  0
   12.5792   19.4458   32.4226 H   0  0  0  0  0  0
   11.8021   19.3037   30.0793 H   0  0  0  0  0  0
   12.8128   17.6716   28.4874 H   0  0  0  0  0  0
   14.6198   15.6944   28.1621 H   0  0  0  0  0  0
   16.3900   14.3172   29.2442 H   0  0  0  0  0  0
   16.9943   14.6513   31.6196 H   0  0  0  0  0  0
  1  2  2  0  0  0
  1  8  1  0  0  0
  1 14  1  0  0  0
  2  3  1  0  0  0
  2 15  1  0  0  0
  3  4  2  0  0  0
  3 16  1  0  0  0
  4  9  1  0  0  0
  4  5  1  0  0  0
  5  6  2  0  0  0
  5 17  1  0  0  0
  6  7  1  0  0  0
  6 18  1  0  0  0
  7 10  2  0  0  0
  7 19  1  0  0  0
  8  9  2  0  0  0
  8 12  1  0  0  0
  9 10  1  0  0  0
 10 11  1  0  0  0
 11 12  1  0  0  0
 12 13  2  0  0  0
M  END
> <s_m_entry_id>
41322

> <s_m_entry_name>
dock_pv.439

> <s_m_Source_Path>
/home/csk/Desktop/cluster/DUD-E-result/tysy

> <s_m_Source_File>
dock_pv.maegz

> <i_m_Source_File_Index>
439

> <chembl_id>
CHEMBL2323363

> <chembl_pref_name>
None

> <i_lp_mmshare_version>
53161

> <r_lp_tautomer_probability>
1

> <s_lp_Force_Field>
OPLS_2005

> <r_lp_Energy>
37.663793

> <b_lp_Chiralities_Consistent>
1

> <s_lp_Variant>
CHEMBL1952_lig477-1

> <s_i_glide_gridfile>
glide-grid_1syn

> <i_i_glide_lignum>
907

> <i_i_glide_rotatable_bonds>
0

> <r_i_docking_score>
-7.2007380404128

> <r_i_glide_ligand_efficiency>
-0.5539029261856

> <r_i_glide_ligand_efficiency_sa>
-1.30241116285669

> <r_i_glide_ligand_efficiency_ln>
-2.01987106081646

> <r_i_glide_gscore>
-7.2007380404128

> <r_i_glide_lipo>
-2.63713998981245

> <r_i_glide_hbond>
0

> <r_i_glide_metal>
0

> <r_i_glide_rewards>
-2.79075447512275

> <r_i_glide_evdw>
-28.1282768249512

> <r_i_glide_ecoul>
-2.44286489486694

> <r_i_glide_erotb>
0

> <r_i_glide_esite>
0

> <r_i_glide_emodel>
-44.0130466099368

> <r_i_glide_energy>
-30.5711417198181

> <r_i_glide_einternal>
0

> <i_i_glide_confnum>
1

> <i_i_glide_posenum>
295

> <r_i_glide_eff_state_penalty>
0

> <s_user_duplicate_titles>
CHEMBL1952_lig477

> <i_f3d_flags>
0

> <s_m_subgroup_title>
dock_pv

> <s_m_subgroupid>
dock_pv

> <b_m_subgroup_collapsed>
1

$$$$
CHEMBL1952_lig354
                    3D
 Schrodinger Suite 2021-1.
 52 55  0  0  1  0            999 V2000
   15.8102   15.4954   30.4017 C   0  0  0  0  0  0
   15.6849   15.7634   31.8964 C   0  0  0  0  0  0
   15.0003   16.2867   29.5742 N   0  0  0  0  0  0
   14.0304   17.4299   31.3866 N   0  0  0  0  0  0
   12.3435   10.9927   38.6483 S   0  0  1  0  0  0
   13.7584   11.4950   37.5956 C   0  0  0  0  0  0
   14.7699   16.7264   32.3406 C   0  0  0  0  0  0
   14.1966   17.1606   30.0443 C   0  0  0  0  0  0
   14.9917   10.8298   37.5794 C   0  0  0  0  0  0
   16.0304   11.3275   36.7906 C   0  0  0  0  0  0
   15.8871   12.4762   35.9909 C   0  0  0  0  0  0
   16.9552   13.0205   35.2041 N   0  0  0  0  0  0
   13.5796   12.6177   36.7920 C   0  0  0  0  0  0
   18.4005   10.9770   34.7279 C   0  0  0  0  0  0
   18.5915    9.8287   34.3590 C   0  0  0  0  0  0
   16.4523   15.0438   32.8301 C   0  0  0  0  0  0
   12.3709    9.4677   38.7679 O   0  0  0  0  0  0
   16.5928   14.6376   30.0049 O   0  0  0  0  0  0
   12.9606   11.6617   40.2321 C   0  0  0  0  0  0
   17.0718   14.4983   35.2498 C   0  0  0  0  0  0
   16.2565   15.2603   34.2012 C   0  0  0  0  0  0
   14.6225   13.0872   35.9971 C   0  0  0  0  0  0
   14.5986   16.9688   33.6967 C   0  0  0  0  0  0
   15.3024    9.4167   38.5283 Cl  0  0  0  0  0  0
   18.2863   12.3734   35.1911 C   0  0  0  0  0  0
   15.3329   16.2280   34.6203 C   0  0  0  0  0  0
   13.3824   17.9898   29.0793 C   0  0  0  0  0  0
   12.9928   13.0435   40.4247 C   0  0  0  0  0  0
   13.3866   10.7908   41.2365 C   0  0  0  0  0  0
   13.8551   11.3082   42.4423 C   0  0  0  0  0  0
   13.4609   13.5574   41.6318 C   0  0  0  0  0  0
   13.8930   12.6886   42.6334 C   0  0  0  0  0  0
   16.9716   10.8103   36.8537 H   0  0  0  0  0  0
   12.6294   13.1317   36.7748 H   0  0  0  0  0  0
   18.7985    8.8428   34.0085 H   0  0  0  0  0  0
   17.1677   14.2964   32.5063 H   0  0  0  0  0  0
   13.3899   18.1493   31.6809 H   0  0  0  0  0  0
   18.1083   14.8201   35.1314 H   0  0  0  0  0  0
   16.7962   14.8488   36.2479 H   0  0  0  0  0  0
   14.4152   13.9382   35.3748 H   0  0  0  0  0  0
   13.8945   17.7146   34.0357 H   0  0  0  0  0  0
   18.9801   12.9356   34.5638 H   0  0  0  0  0  0
   18.6847   12.3763   36.1984 H   0  0  0  0  0  0
   15.1816   16.4130   35.6737 H   0  0  0  0  0  0
   13.4962   17.6468   28.0496 H   0  0  0  0  0  0
   12.3206   17.9471   29.3234 H   0  0  0  0  0  0
   13.6964   19.0334   29.1121 H   0  0  0  0  0  0
   12.6643   13.7132   39.6428 H   0  0  0  0  0  0
   13.3618    9.7222   41.0768 H   0  0  0  0  0  0
   14.1978   10.6447   43.2238 H   0  0  0  0  0  0
   13.4981   14.6251   41.7825 H   0  0  0  0  0  0
   14.2698   13.0829   43.5662 H   0  0  0  0  0  0
  1 18  2  0  0  0
  1  2  1  0  0  0
  1  3  1  0  0  0
  2 16  2  0  0  0
  2  7  1  0  0  0
  3  8  2  0  0  0
  4  7  1  0  0  0
  4 37  1  0  0  0
  4  8  1  0  0  0
  5  6  1  0  0  0
  5 17  2  0  0  0
  5 19  1  0  0  0
  6 13  2  0  0  0
  6  9  1  0  0  0
  7 23  2  0  0  0
  8 27  1  0  0  0
  9 10  2  0  0  0
  9 24  1  0  0  0
 10 11  1  0  0  0
 10 33  1  0  0  0
 11 12  1  0  0  0
 11 22  2  0  0  0
 12 20  1  0  0  0
 12 25  1  0  0  0
 13 22  1  0  0  0
 13 34  1  0  0  0
 14 25  1  0  0  0
 14 15  3  0  0  0
 15 35  1  0  0  0
 16 36  1  0  0  0
 16 21  1  0  0  0
 19 28  2  0  0  0
 19 29  1  0  0  0
 20 38  1  0  0  0
 20 39  1  0  0  0
 20 21  1  0  0  0
 21 26  2  0  0  0
 22 40  1  0  0  0
 23 26  1  0  0  0
 23 41  1  0  0  0
 25 42  1  0  0  0
 25 43  1  0  0  0
 26 44  1  0  0  0
 27 45  1  0  0  0
 27 46  1  0  0  0
 27 47  1  0  0  0
 28 31  1  0  0  0
 28 48  1  0  0  0
 29 30  2  0  0  0
 29 49  1  0  0  0
 30 32  1  0  0  0
 30 50  1  0  0  0
 31 32  2  0  0  0
 31 51  1  0  0  0
 32 52  1  0  0  0
M  END
> <s_m_entry_id>
41326

> <s_m_entry_name>
dock_pv.443

> <s_m_Source_Path>
/home/csk/Desktop/cluster/DUD-E-result/tysy

> <s_m_Source_File>
dock_pv.maegz

> <i_m_Source_File_Index>
443

> <chembl_id>
CHEMBL160215

> <chembl_pref_name>
None

> <i_lp_mmshare_version>
53161

> <r_lp_tautomer_probability>
0.116051

> <s_lp_Force_Field>
OPLS_2005

> <r_lp_Energy>
20.494081

> <b_lp_Chiralities_Consistent>
1

> <s_lp_Variant>
CHEMBL1952_lig354-4

> <s_i_glide_gridfile>
glide-grid_1syn

> <i_i_glide_lignum>
662

> <i_i_glide_rotatable_bonds>
7

> <r_i_docking_score>
-7.18496551269082

> <r_i_glide_ligand_efficiency>
-0.224530172271588

> <r_i_glide_ligand_efficiency_sa>
-0.712838862501537

> <r_i_glide_ligand_efficiency_ln>
-1.60890963305428

> <r_i_glide_gscore>
-7.18496551269082

> <r_i_glide_lipo>
-3.74926797474156

> <r_i_glide_hbond>
0

> <r_i_glide_metal>
0

> <r_i_glide_rewards>
-0.937071959357363

> <r_i_glide_evdw>
-55.5197067260742

> <r_i_glide_ecoul>
-2.54968285560608

> <r_i_glide_erotb>
0.660613839158637

> <r_i_glide_esite>
-0.000801653105907817

> <r_i_glide_emodel>
-76.1964996319872

> <r_i_glide_energy>
-58.0693895816803

> <r_i_glide_einternal>
6.39885950088501

> <i_i_glide_confnum>
11

> <i_i_glide_posenum>
166

> <r_i_glide_eff_state_penalty>
0

> <s_user_duplicate_titles>
CHEMBL1952_lig354

> <i_f3d_flags>
0

> <s_m_subgroup_title>
dock_pv

> <s_m_subgroupid>
dock_pv

> <b_m_subgroup_collapsed>
1

$$$$
CHEMBL1952_lig343
                    3D
 Schrodinger Suite 2021-1.
 55 58  0  0  1  0            999 V2000
   14.6057   11.4951   36.4711 C   0  0  0  0  0  0
   14.3578   17.6512   32.7944 C   0  0  0  0  0  0
   15.3465   16.5342   32.4954 C   0  0  0  0  0  0
   14.0279   12.6045   37.1143 C   0  0  0  0  0  0
   13.6252   18.1155   31.6949 N   0  0  0  0  0  0
   14.6646   16.6234   30.1957 N   0  0  0  0  0  0
   12.4354   12.4808   38.0231 S   0  0  2  0  0  0
   13.9724   10.0957   36.5350 C   0  0  0  0  0  0
   15.4637   16.0446   31.1895 C   0  0  0  0  0  0
   13.7862   17.6392   30.5201 C   0  0  0  0  0  0
   15.7764   11.6933   35.7249 C   0  0  0  0  0  0
   16.3980   12.9457   35.5911 C   0  0  0  0  0  0
   17.5716   13.0993   34.7887 N   0  0  0  0  0  0
   14.6299   13.8576   37.0052 C   0  0  0  0  0  0
   18.6189   10.8173   34.6435 C   0  0  0  0  0  0
   18.5918    9.6503   34.2916 C   0  0  0  0  0  0
   16.1434   16.0003   33.5125 C   0  0  0  0  0  0
   11.7364   13.8279   37.8237 O   0  0  0  0  0  0
   14.2663   18.0760   33.9443 O   0  0  0  0  0  0
   13.0465   12.4869   39.7437 C   0  0  0  0  0  0
   17.9700   14.4398   34.3199 C   0  0  0  0  0  0
   17.0566   14.9816   33.2277 C   0  0  0  0  0  0
   15.7937   14.0239   36.2564 C   0  0  0  0  0  0
   16.3698   15.0290   30.8955 C   0  0  0  0  0  0
   13.9114    9.6856   37.8007 F   0  0  0  0  0  0
   12.7391   10.1249   36.0315 F   0  0  0  0  0  0
   14.6666    9.1816   35.8517 F   0  0  0  0  0  0
   18.7245   12.2200   35.0707 C   0  0  0  0  0  0
   17.1706   14.5033   31.9151 C   0  0  0  0  0  0
   12.9718   18.2231   29.3876 C   0  0  0  0  0  0
   13.3753   13.6939   40.3637 C   0  0  0  0  0  0
   13.1383   11.2815   40.4405 C   0  0  0  0  0  0
   13.5577   11.2850   41.7697 C   0  0  0  0  0  0
   13.7919   13.6948   41.6933 C   0  0  0  0  0  0
   13.8843   12.4905   42.3906 C   0  0  0  0  0  0
   16.1683   10.8477   35.1899 H   0  0  0  0  0  0
   14.1901   14.7181   37.4888 H   0  0  0  0  0  0
   18.5932    8.6286   33.9913 H   0  0  0  0  0  0
   16.0571   16.3782   34.5191 H   0  0  0  0  0  0
   14.7396   16.2992   29.2456 H   0  0  0  0  0  0
   18.9791   14.4312   33.9078 H   0  0  0  0  0  0
   18.0252   15.1416   35.1534 H   0  0  0  0  0  0
   16.2173   15.0133   36.2280 H   0  0  0  0  0  0
   16.4665   14.6497   29.8897 H   0  0  0  0  0  0
   19.6320   12.5876   34.5860 H   0  0  0  0  0  0
   18.9491   12.2153   36.1325 H   0  0  0  0  0  0
   17.8849   13.7246   31.6841 H   0  0  0  0  0  0
   12.2565   18.9696   29.7416 H   0  0  0  0  0  0
   13.6206   18.7102   28.6580 H   0  0  0  0  0  0
   12.4032   17.4458   28.8761 H   0  0  0  0  0  0
   13.3033   14.6236   39.8163 H   0  0  0  0  0  0
   12.8733   10.3494   39.9608 H   0  0  0  0  0  0
   13.6354   10.3559   42.3156 H   0  0  0  0  0  0
   14.0557   14.6216   42.1779 H   0  0  0  0  0  0
   14.2257   12.4901   43.4161 H   0  0  0  0  0  0
  1  4  2  0  0  0
  1  8  1  0  0  0
  1 11  1  0  0  0
  2 19  2  0  0  0
  2  3  1  0  0  0
  2  5  1  0  0  0
  3 17  2  0  0  0
  3  9  1  0  0  0
  4  7  1  0  0  0
  4 14  1  0  0  0
  5 10  2  0  0  0
  6  9  1  0  0  0
  6 40  1  0  0  0
  6 10  1  0  0  0
  7 18  2  0  0  0
  7 20  1  0  0  0
  8 25  1  0  0  0
  8 26  1  0  0  0
  8 27  1  0  0  0
  9 24  2  0  0  0
 10 30  1  0  0  0
 11 12  2  0  0  0
 11 36  1  0  0  0
 12 13  1  0  0  0
 12 23  1  0  0  0
 13 21  1  0  0  0
 13 28  1  0  0  0
 14 23  2  0  0  0
 14 37  1  0  0  0
 15 28  1  0  0  0
 15 16  3  0  0  0
 16 38  1  0  0  0
 17 39  1  0  0  0
 17 22  1  0  0  0
 20 31  2  0  0  0
 20 32  1  0  0  0
 21 41  1  0  0  0
 21 42  1  0  0  0
 21 22  1  0  0  0
 22 29  2  0  0  0
 23 43  1  0  0  0
 24 29  1  0  0  0
 24 44  1  0  0  0
 28 45  1  0  0  0
 28 46  1  0  0  0
 29 47  1  0  0  0
 30 48  1  0  0  0
 30 49  1  0  0  0
 30 50  1  0  0  0
 31 34  1  0  0  0
 31 51  1  0  0  0
 32 33  2  0  0  0
 32 52  1  0  0  0
 33 35  1  0  0  0
 33 53  1  0  0  0
 34 35  2  0  0  0
 34 54  1  0  0  0
 35 55  1  0  0  0
M  END
> <s_m_entry_id>
41330

> <s_m_entry_name>
dock_pv.447

> <s_m_Source_Path>
/home/csk/Desktop/cluster/DUD-E-result/tysy

> <s_m_Source_File>
dock_pv.maegz

> <i_m_Source_File_Index>
447

> <chembl_id>
CHEMBL161450

> <chembl_pref_name>
None

> <i_lp_mmshare_version>
53161

> <r_lp_tautomer_probability>
0.116051

> <s_lp_Force_Field>
OPLS_2005

> <r_lp_Energy>
22.388181

> <b_lp_Chiralities_Consistent>
1

> <s_lp_Variant>
CHEMBL1952_lig343-3

> <s_i_glide_gridfile>
glide-grid_1syn

> <i_i_glide_lignum>
629

> <i_i_glide_rotatable_bonds>
8

> <r_i_docking_score>
-7.17570484060554

> <r_i_glide_ligand_efficiency>
-0.205020138303015

> <r_i_glide_ligand_efficiency_sa>
-0.670634466518419

> <r_i_glide_ligand_efficiency_ln>
-1.57522646870136

> <r_i_glide_gscore>
-7.17570484060554

> <r_i_glide_lipo>
-3.69197730682123

> <r_i_glide_hbond>
0

> <r_i_glide_metal>
0

> <r_i_glide_rewards>
-0.796601321183499

> <r_i_glide_evdw>
-61.7970504760742

> <r_i_glide_ecoul>
-1.18969631195068

> <r_i_glide_erotb>
0.581180757995511

> <r_i_glide_esite>
0

> <r_i_glide_emodel>
-88.4306896386031

> <r_i_glide_energy>
-62.9867467880249

> <r_i_glide_einternal>
1.98608028888702

> <i_i_glide_confnum>
120

> <i_i_glide_posenum>
119

> <r_i_glide_eff_state_penalty>
0

> <s_user_duplicate_titles>
CHEMBL1952_lig343

> <i_f3d_flags>
0

> <s_m_subgroup_title>
dock_pv

> <s_m_subgroupid>
dock_pv

> <b_m_subgroup_collapsed>
1

$$$$
CHEMBL1952_lig404
                    3D
 Schrodinger Suite 2021-1.
 31 33  0  0  1  0            999 V2000
   16.1128   15.5973   32.9885 C   0  0  0  0  0  0
   15.0484   16.2961   33.6860 C   0  0  0  0  0  0
   14.1213   17.0276   33.0223 N   0  0  0  0  0  0
   17.2340   14.8529   33.5304 C   0  0  0  0  0  0
   15.0782   16.3956   30.9060 N   0  0  0  0  0  0
   16.0360   15.6807   31.5541 C   0  0  0  0  0  0
   14.1937   17.0568   31.6778 C   0  0  0  0  0  0
   17.3546   14.6281   35.2962 S   0  0  0  0  0  0
   18.2300   14.3458   32.6892 C   0  0  0  0  0  0
   14.9759   16.2274   35.0492 O   0  0  0  0  0  0
   16.9898   15.0280   30.7413 C   0  0  0  0  0  0
   16.3145   10.2451   36.0206 N   0  0  0  0  0  0
   18.0814   14.3948   31.3145 C   0  0  0  0  0  0
   16.9407   12.9301   35.5310 C   0  0  0  0  0  0
   19.3918   13.8270   33.1916 O   0  0  0  0  0  0
   15.6692   12.5786   35.9910 C   0  0  0  0  0  0
   17.8981   11.9352   35.3229 C   0  0  0  0  0  0
   13.2054   17.9567   30.9662 C   0  0  0  0  0  0
   17.5475   10.6122   35.5839 C   0  0  0  0  0  0
   15.3965   11.2274   36.2165 C   0  0  0  0  0  0
   15.7060   15.7208   35.4181 H   0  0  0  0  0  0
   16.9006   15.0802   29.6648 H   0  0  0  0  0  0
   18.8447   13.9614   30.6868 H   0  0  0  0  0  0
   19.8816   13.2721   32.5667 H   0  0  0  0  0  0
   14.9152   13.3306   36.1708 H   0  0  0  0  0  0
   18.8982   12.1755   34.9951 H   0  0  0  0  0  0
   13.3371   17.9422   29.8830 H   0  0  0  0  0  0
   12.1895   17.6414   31.1890 H   0  0  0  0  0  0
   13.3225   18.9865   31.3070 H   0  0  0  0  0  0
   18.2731    9.8262   35.4410 H   0  0  0  0  0  0
   14.4237   10.9141   36.5663 H   0  0  0  0  0  0
  1  2  1  0  0  0
  1  4  2  0  0  0
  1  6  1  0  0  0
  2  3  2  0  0  0
  2 10  1  0  0  0
  3  7  1  0  0  0
  4  8  1  0  0  0
  4  9  1  0  0  0
  5  6  1  0  0  0
  5  7  2  0  0  0
  6 11  2  0  0  0
  7 18  1  0  0  0
  8 14  1  0  0  0
  9 15  1  0  0  0
  9 13  2  0  0  0
 10 21  1  0  0  0
 11 13  1  0  0  0
 11 22  1  0  0  0
 12 19  2  0  0  0
 12 20  1  0  0  0
 13 23  1  0  0  0
 14 16  1  0  0  0
 14 17  2  0  0  0
 15 24  1  0  0  0
 16 20  2  0  0  0
 16 25  1  0  0  0
 17 19  1  0  0  0
 17 26  1  0  0  0
 18 27  1  0  0  0
 18 28  1  0  0  0
 18 29  1  0  0  0
 19 30  1  0  0  0
 20 31  1  0  0  0
M  END
> <s_m_entry_id>
41333

> <s_m_entry_name>
dock_pv.450

> <s_m_Source_Path>
/home/csk/Desktop/cluster/DUD-E-result/tysy

> <s_m_Source_File>
dock_pv.maegz

> <i_m_Source_File_Index>
450

> <chembl_id>
CHEMBL164569

> <chembl_pref_name>
None

> <i_lp_mmshare_version>
53161

> <r_lp_tautomer_probability>
1

> <s_lp_Force_Field>
OPLS_2005

> <r_lp_Energy>
9.019923

> <b_lp_Chiralities_Consistent>
1

> <s_lp_Variant>
CHEMBL1952_lig404-1

> <s_i_glide_gridfile>
glide-grid_1syn

> <i_i_glide_lignum>
793

> <i_i_glide_rotatable_bonds>
4

> <r_i_docking_score>
-7.16638077832218

> <r_i_glide_ligand_efficiency>
-0.358319038916109

> <r_i_glide_ligand_efficiency_sa>
-0.972627510623999

> <r_i_glide_ligand_efficiency_ln>
-1.7935087457569

> <r_i_glide_gscore>
-7.16638077832218

> <r_i_glide_lipo>
-3.01814227588607

> <r_i_glide_hbond>
-0.173434312210363

> <r_i_glide_metal>
0

> <r_i_glide_rewards>
-1.81955210265058

> <r_i_glide_evdw>
-38.2501983642578

> <r_i_glide_ecoul>
-4.58957529067993

> <r_i_glide_erotb>
0.445694124239713

> <r_i_glide_esite>
0

> <r_i_glide_emodel>
-61.8003586699935

> <r_i_glide_energy>
-42.8397736549377

> <r_i_glide_einternal>
1.94893300533295

> <i_i_glide_confnum>
3

> <i_i_glide_posenum>
66

> <r_i_glide_eff_state_penalty>
0

> <s_user_duplicate_titles>
CHEMBL1952_lig404

> <i_f3d_flags>
0

> <s_m_subgroup_title>
dock_pv

> <s_m_subgroupid>
dock_pv

> <b_m_subgroup_collapsed>
1

$$$$
CHEMBL1952_lig28
                    3D
 Schrodinger Suite 2021-1.
 26 28  0  0  1  0            999 V2000
   14.9928   16.6901   31.5891 C   0  0  0  0  0  0
   14.3037   17.7748   32.2706 C   0  0  0  0  0  0
   13.3822   18.5423   31.6415 N   0  0  0  0  0  0
   13.6736   17.2965   29.6035 N   0  0  0  0  0  0
   14.5971   16.5137   30.2183 C   0  0  0  0  0  0
   16.0119   15.8172   32.1178 C   0  0  0  0  0  0
   13.1273   18.2767   30.3455 C   0  0  0  0  0  0
   14.5892   18.0744   33.5707 O   0  0  0  0  0  0
   16.6053   14.8289   31.2584 C   0  0  0  0  0  0
   16.4925   15.8497   33.4676 C   0  0  0  0  0  0
   15.1771   15.5120   29.4215 C   0  0  0  0  0  0
   16.1623   14.6894   29.9329 C   0  0  0  0  0  0
   17.6337   13.9769   31.7357 C   0  0  0  0  0  0
   17.4923   14.9858   33.9078 C   0  0  0  0  0  0
   18.0692   14.0674   33.0473 C   0  0  0  0  0  0
   17.9031   15.0280   35.1935 F   0  0  0  0  0  0
   12.1913   19.2183   29.6165 C   0  0  0  0  0  0
   14.0529   18.8203   33.8608 H   0  0  0  0  0  0
   16.1031   16.5236   34.2053 H   0  0  0  0  0  0
   14.8598   15.3944   28.3953 H   0  0  0  0  0  0
   16.5922   13.9231   29.3006 H   0  0  0  0  0  0
   18.0804   13.2452   31.0757 H   0  0  0  0  0  0
   18.8512   13.4121   33.3983 H   0  0  0  0  0  0
   11.7956   19.9953   30.2723 H   0  0  0  0  0  0
   11.3500   18.6662   29.1927 H   0  0  0  0  0  0
   12.7148   19.7040   28.7921 H   0  0  0  0  0  0
  1  2  1  0  0  0
  1  5  2  0  0  0
  1  6  1  0  0  0
  2  3  2  0  0  0
  2  8  1  0  0  0
  3  7  1  0  0  0
  4  5  1  0  0  0
  4  7  2  0  0  0
  5 11  1  0  0  0
  6  9  2  0  0  0
  6 10  1  0  0  0
  7 17  1  0  0  0
  8 18  1  0  0  0
  9 12  1  0  0  0
  9 13  1  0  0  0
 10 14  2  0  0  0
 10 19  1  0  0  0
 11 12  2  0  0  0
 11 20  1  0  0  0
 12 21  1  0  0  0
 13 15  2  0  0  0
 13 22  1  0  0  0
 14 15  1  0  0  0
 14 16  1  0  0  0
 15 23  1  0  0  0
 17 24  1  0  0  0
 17 25  1  0  0  0
 17 26  1  0  0  0
M  END
> <s_m_entry_id>
41334

> <s_m_entry_name>
dock_pv.451

> <s_m_Source_Path>
/home/csk/Desktop/cluster/DUD-E-result/tysy

> <s_m_Source_File>
dock_pv.maegz

> <i_m_Source_File_Index>
451

> <chembl_id>
CHEMBL72132

> <chembl_pref_name>
None

> <i_lp_mmshare_version>
53161

> <r_lp_tautomer_probability>
1

> <s_lp_Force_Field>
OPLS_2005

> <r_lp_Energy>
14.951833

> <b_lp_Chiralities_Consistent>
1

> <s_lp_Variant>
CHEMBL1952_lig28-1

> <s_i_glide_gridfile>
glide-grid_1syn

> <i_i_glide_lignum>
35

> <i_i_glide_rotatable_bonds>
1

> <r_i_docking_score>
-7.16270927194443

> <r_i_glide_ligand_efficiency>
-0.421335839526143

> <r_i_glide_ligand_efficiency_sa>
-1.08337308663496

> <r_i_glide_ligand_efficiency_ln>
-1.86859134335712

> <r_i_glide_gscore>
-7.16270927194443

> <r_i_glide_lipo>
-2.57526443748585

> <r_i_glide_hbond>
0

> <r_i_glide_metal>
0

> <r_i_glide_rewards>
-2.46268455241894

> <r_i_glide_evdw>
-34.5763168334961

> <r_i_glide_ecoul>
-2.63962960243225

> <r_i_glide_erotb>
0

> <r_i_glide_esite>
0

> <r_i_glide_emodel>
-53.6582487174391

> <r_i_glide_energy>
-37.2159464359283

> <r_i_glide_einternal>
0.909024119377136

> <i_i_glide_confnum>
1

> <i_i_glide_posenum>
221

> <r_i_glide_eff_state_penalty>
0

> <s_user_duplicate_titles>
CHEMBL1952_lig28

> <i_f3d_flags>
0

> <s_m_subgroup_title>
dock_pv

> <s_m_subgroupid>
dock_pv

> <b_m_subgroup_collapsed>
1

$$$$
CHEMBL1952_lig237
                    3D
 Schrodinger Suite 2021-1.
 62 64  0  0  1  0            999 V2000
   14.4829   16.6945   29.4158 N   0  0  0  0  0  0
   13.7036   17.5395   29.9732 C   0  0  0  0  0  0
   13.6365   17.7670   31.3322 N   0  0  0  0  0  0
   15.3919   15.9206   30.1508 C   0  0  0  0  0  0
   16.1639   15.0956   29.6680 O   0  0  0  0  0  0
   15.4068   16.1762   31.6533 C   0  0  0  0  0  0
   14.4943   17.0869   32.1996 C   0  0  0  0  0  0
   14.4689   17.3280   33.5662 C   0  0  0  0  0  0
   15.3873   16.6807   34.3908 C   0  0  0  0  0  0
   16.3490   15.8118   33.8637 C   0  0  0  0  0  0
   16.3411   15.5406   32.4879 C   0  0  0  0  0  0
   17.4413   15.2528   34.7873 C   0  0  0  0  0  0
   17.6330   13.8032   34.6736 N   0  0  0  0  0  0
   16.6962   12.9514   35.3323 C   0  0  0  0  0  0
   15.6237   13.4759   36.0788 C   0  0  0  0  0  0
   14.6848   12.6599   36.6908 C   0  0  0  0  0  0
   14.7583   11.2730   36.5612 C   0  0  0  0  0  0
   15.8168   10.7246   35.8159 C   0  0  0  0  0  0
   16.7864   11.5557   35.2476 C   0  0  0  0  0  0
   13.6796   10.4350   37.1939 C   0  0  0  0  0  0
   13.0532    9.6003   36.5415 O   0  0  0  0  0  0
   13.4736   10.6908   38.4970 N   0  0  0  0  0  0
   12.4073   10.1472   39.3456 C   0  0  1  0  0  0
   12.7553    8.7720   39.9988 C   0  0  0  0  0  0
   12.0414   11.2191   40.3910 C   0  0  0  0  0  0
   13.0519   11.3748   41.2984 O   0  0  0  0  0  0
   10.9932   11.8284   40.3905 O   0  0  0  0  0  0
   12.9923    7.5842   39.0337 C   0  0  0  0  0  0
   14.4500    7.4195   38.5937 C   0  0  0  0  0  0
   14.5889    6.5616   37.5420 O   0  0  0  0  0  0
   15.3927    7.9990   39.1270 O   0  0  0  0  0  0
   12.7837   18.3617   29.1011 C   0  0  0  0  0  0
   18.7520   13.2540   33.8791 C   0  0  0  0  0  0
   15.9298    9.3546   35.5926 N   0  0  0  0  0  0
   19.7868   14.2816   33.3674 C   0  0  0  0  0  0
   13.0035   18.4595   31.6968 H   0  0  0  0  0  0
   13.7631   18.0294   33.9872 H   0  0  0  0  0  0
   15.3695   16.8891   35.4497 H   0  0  0  0  0  0
   17.0736   14.8595   32.0751 H   0  0  0  0  0  0
   17.2415   15.4280   35.8413 H   0  0  0  0  0  0
   18.3480   15.8234   34.5976 H   0  0  0  0  0  0
   15.4637   14.5333   36.2015 H   0  0  0  0  0  0
   13.8772   13.1277   37.2372 H   0  0  0  0  0  0
   17.5932   11.0995   34.6964 H   0  0  0  0  0  0
   14.0532   11.4025   38.9152 H   0  0  0  0  0  0
   11.5195   10.0085   38.7234 H   0  0  0  0  0  0
   11.9305    8.4827   40.6529 H   0  0  0  0  0  0
   13.6133    8.8725   40.6645 H   0  0  0  0  0  0
   13.7898   10.7907   41.1123 H   0  0  0  0  0  0
   12.3370    7.6650   38.1663 H   0  0  0  0  0  0
   12.7153    6.6585   39.5394 H   0  0  0  0  0  0
   13.7588    6.1887   37.2352 H   0  0  0  0  0  0
   12.9909   18.2111   28.0403 H   0  0  0  0  0  0
   11.7400   18.1018   29.2787 H   0  0  0  0  0  0
   12.9035   19.4259   29.3046 H   0  0  0  0  0  0
   19.2838   12.5114   34.4760 H   0  0  0  0  0  0
   18.3420   12.7090   33.0265 H   0  0  0  0  0  0
   16.6456    9.0277   34.9619 H   0  0  0  0  0  0
   15.1508    8.7660   35.8554 H   0  0  0  0  0  0
   20.5765   13.8281   32.7743 H   0  0  0  0  0  0
   19.3269   15.0279   32.7218 H   0  0  0  0  0  0
   20.2756   14.7899   34.1981 H   0  0  0  0  0  0
  1  2  2  0  0  0
  1  4  1  0  0  0
  2  3  1  0  0  0
  2 32  1  0  0  0
  3  7  1  0  0  0
  3 36  1  0  0  0
  4  5  2  0  0  0
  4  6  1  0  0  0
  6 11  1  0  0  0
  6  7  2  0  0  0
  7  8  1  0  0  0
  8  9  2  0  0  0
  8 37  1  0  0  0
  9 10  1  0  0  0
  9 38  1  0  0  0
 10 11  2  0  0  0
 10 12  1  0  0  0
 11 39  1  0  0  0
 12 13  1  0  0  0
 12 40  1  0  0  0
 12 41  1  0  0  0
 13 14  1  0  0  0
 13 33  1  0  0  0
 14 19  1  0  0  0
 14 15  2  0  0  0
 15 16  1  0  0  0
 15 42  1  0  0  0
 16 17  2  0  0  0
 16 43  1  0  0  0
 17 18  1  0  0  0
 17 20  1  0  0  0
 18 19  2  0  0  0
 18 34  1  0  0  0
 19 44  1  0  0  0
 20 21  2  0  0  0
 20 22  1  0  0  0
 22 23  1  0  0  0
 22 45  1  0  0  0
 23 24  1  0  0  0
 23 25  1  0  0  0
 23 46  1  0  0  0
 24 28  1  0  0  0
 24 47  1  0  0  0
 24 48  1  0  0  0
 25 26  1  0  0  0
 25 27  2  0  0  0
 26 49  1  0  0  0
 28 29  1  0  0  0
 28 50  1  0  0  0
 28 51  1  0  0  0
 29 30  1  0  0  0
 29 31  2  0  0  0
 30 52  1  0  0  0
 32 53  1  0  0  0
 32 54  1  0  0  0
 32 55  1  0  0  0
 33 35  1  0  0  0
 33 56  1  0  0  0
 33 57  1  0  0  0
 34 58  1  0  0  0
 34 59  1  0  0  0
 35 60  1  0  0  0
 35 61  1  0  0  0
 35 62  1  0  0  0
M  END
> <s_m_entry_id>
41335

> <s_m_entry_name>
dock_pv.452

> <s_m_Source_Path>
/home/csk/Desktop/cluster/DUD-E-result/tysy

> <s_m_Source_File>
dock_pv.maegz

> <i_m_Source_File_Index>
452

> <chembl_id>
CHEMBL102275

> <chembl_pref_name>
None

> <i_lp_mmshare_version>
53161

> <r_lp_tautomer_probability>
0.116051

> <s_lp_Force_Field>
OPLS_2005

> <r_lp_Energy>
27.287722

> <b_lp_Chiralities_Consistent>
1

> <s_lp_Variant>
CHEMBL1952_lig237-2

> <s_i_glide_gridfile>
glide-grid_1syn

> <i_i_glide_lignum>
471

> <i_i_glide_rotatable_bonds>
13

> <r_i_docking_score>
-7.16232479471098

> <r_i_glide_ligand_efficiency>
-0.204637851277457

> <r_i_glide_ligand_efficiency_sa>
-0.669383980309773

> <r_i_glide_ligand_efficiency_ln>
-1.57228925167338

> <r_i_glide_gscore>
-7.16232479471098

> <r_i_glide_lipo>
-3.63210009467805

> <r_i_glide_hbond>
-0.0181672456235258

> <r_i_glide_metal>
0

> <r_i_glide_rewards>
-0.827358929144328

> <r_i_glide_evdw>
-53.3774299621582

> <r_i_glide_ecoul>
-5.75737142562866

> <r_i_glide_erotb>
0.875020631607815

> <r_i_glide_esite>
-0.0272419449206779

> <r_i_glide_emodel>
-76.901647360416

> <r_i_glide_energy>
-59.1348013877869

> <r_i_glide_einternal>
13.0508918762207

> <i_i_glide_confnum>
158

> <i_i_glide_posenum>
313

> <r_i_glide_eff_state_penalty>
0

> <s_user_duplicate_titles>
CHEMBL1952_lig237,CHEMBL1952_lig237,171316

> <i_f3d_flags>
0

> <s_m_subgroup_title>
dock_pv

> <s_m_subgroupid>
dock_pv

> <b_m_subgroup_collapsed>
1

$$$$
CHEMBL1952_lig264
                    3D
 Schrodinger Suite 2021-1.
 60 62  0  0  1  0            999 V2000
   13.4304   17.5034   31.5650 N   0  0  0  0  0  0
   13.4431   16.7406   30.5429 C   0  0  0  0  0  0
   14.4431   15.8281   30.2483 N   0  0  0  0  0  0
   14.4615   17.5004   32.5071 C   0  0  0  0  0  0
   14.5252   18.2280   33.4960 O   0  0  0  0  0  0
   15.5744   16.4958   32.2495 C   0  0  0  0  0  0
   15.5368   15.6844   31.1103 C   0  0  0  0  0  0
   16.5582   14.7661   30.8654 C   0  0  0  0  0  0
   17.6115   14.6397   31.7781 C   0  0  0  0  0  0
   17.6512   15.4499   32.9236 C   0  0  0  0  0  0
   16.6388   16.3856   33.1419 C   0  0  0  0  0  0
   18.7984   15.3934   33.9334 C   0  0  0  0  0  0
   19.2889   14.0402   34.2078 N   0  0  0  0  0  0
   18.4031   13.0888   34.7912 C   0  0  0  0  0  0
   18.7821   11.7534   35.0061 C   0  0  0  0  0  0
   17.8981   10.8460   35.5910 C   0  0  0  0  0  0
   16.6074   11.2734   35.9215 C   0  0  0  0  0  0
   16.2098   12.5569   35.7277 N   0  0  0  0  0  0
   17.0960   13.4272   35.1910 C   0  0  0  0  0  0
   15.5936   10.3095   36.4749 C   0  0  0  0  0  0
   15.9142    9.4280   37.2713 O   0  0  0  0  0  0
   14.3475   10.4524   35.9910 N   0  0  0  0  0  0
   13.2068    9.5575   36.2148 C   0  0  1  0  0  0
   11.9908   10.1589   35.4646 C   0  0  0  0  0  0
   13.5084    8.1067   35.7556 C   0  0  0  0  0  0
   12.8916    7.2123   36.5808 O   0  0  0  0  0  0
   14.1920    7.8281   34.7910 O   0  0  0  0  0  0
   10.6334    9.4782   35.7298 C   0  0  0  0  0  0
    9.5586   10.0225   34.7936 C   0  0  0  0  0  0
    9.5934    9.4280   33.5662 O   0  0  0  0  0  0
    8.7691   10.9072   35.1115 O   0  0  0  0  0  0
   12.2764   16.8258   29.5910 C   0  0  0  0  0  0
   20.7331   13.9537   34.4777 C   0  0  0  0  0  0
   21.6601   14.2280   33.3121 C   0  0  0  0  0  0
   23.0012   14.2280   33.3880 C   0  0  0  0  0  0
   14.3876   15.2475   29.4285 H   0  0  0  0  0  0
   16.5346   14.1386   29.9869 H   0  0  0  0  0  0
   18.4012   13.9224   31.5938 H   0  0  0  0  0  0
   16.6919   17.0456   33.9910 H   0  0  0  0  0  0
   19.6042   16.0351   33.5910 H   0  0  0  0  0  0
   18.4790   15.8293   34.8809 H   0  0  0  0  0  0
   19.7533   11.3903   34.7067 H   0  0  0  0  0  0
   18.2137    9.8280   35.7481 H   0  0  0  0  0  0
   16.7080   14.4274   35.1028 H   0  0  0  0  0  0
   14.1874   11.2194   35.3557 H   0  0  0  0  0  0
   13.0171    9.5708   37.2897 H   0  0  0  0  0  0
   11.8886   11.2123   35.7356 H   0  0  0  0  0  0
   12.1920   10.1638   34.3910 H   0  0  0  0  0  0
   12.4012    7.6301   37.2892 H   0  0  0  0  0  0
   10.6876    8.3987   35.5993 H   0  0  0  0  0  0
   10.3222    9.6530   36.7601 H   0  0  0  0  0  0
   10.2742    8.7506   33.4853 H   0  0  0  0  0  0
   11.5868   17.6285   29.8610 H   0  0  0  0  0  0
   12.6248   17.0325   28.5805 H   0  0  0  0  0  0
   11.7062   15.8978   29.5911 H   0  0  0  0  0  0
   20.9888   14.6627   35.2639 H   0  0  0  0  0  0
   21.0290   12.9749   34.8421 H   0  0  0  0  0  0
   21.1869   14.4214   32.3590 H   0  0  0  0  0  0
   23.6047   14.4248   32.5133 H   0  0  0  0  0  0
   23.5084   14.0223   34.3181 H   0  0  0  0  0  0
  1  2  2  0  0  0
  1  4  1  0  0  0
  2  3  1  0  0  0
  2 32  1  0  0  0
  3  7  1  0  0  0
  3 36  1  0  0  0
  4  5  2  0  0  0
  4  6  1  0  0  0
  6 11  1  0  0  0
  6  7  2  0  0  0
  7  8  1  0  0  0
  8  9  2  0  0  0
  8 37  1  0  0  0
  9 10  1  0  0  0
  9 38  1  0  0  0
 10 11  2  0  0  0
 10 12  1  0  0  0
 11 39  1  0  0  0
 12 13  1  0  0  0
 12 40  1  0  0  0
 12 41  1  0  0  0
 13 14  1  0  0  0
 13 33  1  0  0  0
 14 19  1  0  0  0
 14 15  2  0  0  0
 15 16  1  0  0  0
 15 42  1  0  0  0
 16 17  2  0  0  0
 16 43  1  0  0  0
 17 18  1  0  0  0
 17 20  1  0  0  0
 18 19  2  0  0  0
 19 44  1  0  0  0
 20 21  2  0  0  0
 20 22  1  0  0  0
 22 23  1  0  0  0
 22 45  1  0  0  0
 23 24  1  0  0  0
 23 25  1  0  0  0
 23 46  1  0  0  0
 24 28  1  0  0  0
 24 47  1  0  0  0
 24 48  1  0  0  0
 25 26  1  0  0  0
 25 27  2  0  0  0
 26 49  1  0  0  0
 28 29  1  0  0  0
 28 50  1  0  0  0
 28 51  1  0  0  0
 29 30  1  0  0  0
 29 31  2  0  0  0
 30 52  1  0  0  0
 32 53  1  0  0  0
 32 54  1  0  0  0
 32 55  1  0  0  0
 33 34  1  0  0  0
 33 56  1  0  0  0
 33 57  1  0  0  0
 34 35  2  0  0  0
 34 58  1  0  0  0
 35 59  1  0  0  0
 35 60  1  0  0  0
M  END
> <s_m_entry_id>
41338

> <s_m_entry_name>
dock_pv.455

> <s_m_Source_Path>
/home/csk/Desktop/cluster/DUD-E-result/tysy

> <s_m_Source_File>
dock_pv.maegz

> <i_m_Source_File_Index>
455

> <chembl_id>
CHEMBL41445

> <chembl_pref_name>
None

> <i_lp_mmshare_version>
53161

> <r_lp_tautomer_probability>
0.116051

> <s_lp_Force_Field>
OPLS_2005

> <r_lp_Energy>
16.862286

> <b_lp_Chiralities_Consistent>
1

> <s_lp_Variant>
CHEMBL1952_lig264-2

> <s_i_glide_gridfile>
glide-grid_1syn

> <i_i_glide_lignum>
525

> <i_i_glide_rotatable_bonds>
14

> <r_i_docking_score>
-7.14623568524173

> <r_i_glide_ligand_efficiency>
-0.204178162435478

> <r_i_glide_ligand_efficiency_sa>
-0.66788030762739

> <r_i_glide_ligand_efficiency_ln>
-1.56875733506634

> <r_i_glide_gscore>
-7.14623568524173

> <r_i_glide_lipo>
-3.01360861427118

> <r_i_glide_hbond>
-0.571931239311207

> <r_i_glide_metal>
0

> <r_i_glide_rewards>
-0.77638518376869

> <r_i_glide_evdw>
-49.4741744995117

> <r_i_glide_ecoul>
-8.79178524017334

> <r_i_glide_erotb>
1.05810745734037

> <r_i_glide_esite>
-0.0499415942294322

> <r_i_glide_emodel>
-76.5424596775157

> <r_i_glide_energy>
-58.2659597396851

> <r_i_glide_einternal>
9.84353446960449

> <i_i_glide_confnum>
5

> <i_i_glide_posenum>
43

> <r_i_glide_eff_state_penalty>
0

> <s_user_duplicate_titles>
CHEMBL1952_lig264,61627

> <i_f3d_flags>
0

> <s_m_subgroup_title>
dock_pv

> <s_m_subgroupid>
dock_pv

> <b_m_subgroup_collapsed>
1

$$$$
CHEMBL1952_lig99
                    3D
 Schrodinger Suite 2021-1.
 32 34  0  0  1  0            999 V2000
   17.1519   12.5025   35.4303 N   0  0  0  0  0  0
   17.0599   15.5002   33.7881 C   0  0  2  0  0  0
   18.0140   14.8403   34.7909 C   0  0  1  0  0  0
   17.0633   13.9524   35.6275 C   0  0  1  0  0  0
   19.2534   14.0851   34.2441 C   0  0  0  0  0  0
   19.1973   12.7535   34.3910 N   0  0  0  0  0  0
   18.1882   12.0022   34.8772 C   0  0  0  0  0  0
   15.7383   14.4848   35.4406 N   0  0  0  0  0  0
   15.7435   15.4203   34.5737 C   0  0  0  0  0  0
   16.9921   14.6277   32.1733 S   0  0  0  0  0  0
   20.2014   14.6280   33.6964 O   0  0  0  0  0  0
   14.4111   16.6400   29.0082 N   0  0  0  0  0  0
   18.3361   10.6070   34.7922 N   0  0  0  0  0  0
   15.9812   15.4301   30.9811 C   0  0  0  0  0  0
   14.5800   16.3739   34.3912 C   0  0  0  0  0  0
   15.3904   16.6712   31.2154 C   0  0  0  0  0  0
   15.7933   14.8023   29.7523 C   0  0  0  0  0  0
   15.0217   15.4470   28.7911 C   0  0  0  0  0  0
   14.5917   17.2295   30.2158 C   0  0  0  0  0  0
   18.4443   15.6062   35.4374 H   0  0  0  0  0  0
   17.2757   14.1088   36.6845 H   0  0  0  0  0  0
   19.9898   12.2754   33.9677 H   0  0  0  0  0  0
   14.0661   16.2154   33.4462 H   0  0  0  0  0  0
   17.5282   10.0754   35.0739 H   0  0  0  0  0  0
   18.6866   10.2449   33.9179 H   0  0  0  0  0  0
   14.9168   17.4100   34.4382 H   0  0  0  0  0  0
   17.3514   16.5320   33.5893 H   0  0  0  0  0  0
   13.8353   16.2422   35.1776 H   0  0  0  0  0  0
   15.5611   17.2175   32.1269 H   0  0  0  0  0  0
   16.2506   13.8465   29.5443 H   0  0  0  0  0  0
   14.9332   15.0187   27.8070 H   0  0  0  0  0  0
   14.1181   18.1911   30.3570 H   0  0  0  0  0  0
  1  4  1  0  0  0
  1  7  2  0  0  0
  2  3  1  0  0  0
  2 10  1  0  0  0
  2 27  1  0  0  0
  2  9  1  0  0  0
  3  4  1  0  0  0
  3  5  1  0  0  0
  3 20  1  0  0  0
  4 21  1  0  0  0
  4  8  1  0  0  0
  5  6  1  0  0  0
  5 11  2  0  0  0
  6  7  1  0  0  0
  6 22  1  0  0  0
  7 13  1  0  0  0
  8  9  2  0  0  0
  9 15  1  0  0  0
 10 14  1  0  0  0
 12 18  1  0  0  0
 12 19  2  0  0  0
 13 24  1  0  0  0
 13 25  1  0  0  0
 14 16  2  0  0  0
 14 17  1  0  0  0
 15 26  1  0  0  0
 15 28  1  0  0  0
 15 23  1  0  0  0
 16 19  1  0  0  0
 16 29  1  0  0  0
 17 18  2  0  0  0
 17 30  1  0  0  0
 18 31  1  0  0  0
 19 32  1  0  0  0
M  END
> <s_m_entry_id>
41339

> <s_m_entry_name>
dock_pv.456

> <s_m_Source_Path>
/home/csk/Desktop/cluster/DUD-E-result/tysy

> <s_m_Source_File>
dock_pv.maegz

> <i_m_Source_File_Index>
456

> <chembl_id>
CHEMBL138500

> <chembl_pref_name>
None

> <i_lp_mmshare_version>
53161

> <r_lp_tautomer_probability>
0.384609230769231

> <s_lp_Force_Field>
OPLS_2005

> <r_lp_Energy>
27.091441

> <b_lp_Chiralities_Consistent>
1

> <s_lp_Variant>
CHEMBL1952_lig99-8

> <s_i_glide_gridfile>
glide-grid_1syn

> <i_i_glide_lignum>
179

> <i_i_glide_rotatable_bonds>
2

> <r_i_docking_score>
-7.14353362051761

> <r_i_glide_ligand_efficiency>
-0.375975453711453

> <r_i_glide_ligand_efficiency_sa>
-1.00325351957795

> <r_i_glide_ligand_efficiency_ln>
-1.81103920183529

> <r_i_glide_gscore>
-7.14353362051761

> <r_i_glide_lipo>
-2.56161988697978

> <r_i_glide_hbond>
-0.16104909208911

> <r_i_glide_metal>
0

> <r_i_glide_rewards>
-2.48336638132111

> <r_i_glide_evdw>
-38.0959548950195

> <r_i_glide_ecoul>
-2.49422335624695

> <r_i_glide_erotb>
0.474163199295576

> <r_i_glide_esite>
-0.132730211235168

> <r_i_glide_emodel>
-54.7610966651417

> <r_i_glide_energy>
-40.5901782512665

> <r_i_glide_einternal>
5.89819478988647

> <i_i_glide_confnum>
6

> <i_i_glide_posenum>
23

> <r_i_glide_eff_state_penalty>
0

> <s_user_duplicate_titles>
CHEMBL1952_lig99

> <i_f3d_flags>
0

> <s_m_subgroup_title>
dock_pv

> <s_m_subgroupid>
dock_pv

> <b_m_subgroup_collapsed>
1

$$$$
CHEMBL1952_lig342
                    3D
 Schrodinger Suite 2021-1.
 58 60  0  0  1  0            999 V2000
   14.0325   16.8557   30.2382 N   0  0  0  0  0  0
   14.9988   16.4890   31.1162 C   0  0  0  0  0  0
   13.1773   18.4034   31.8762 N   0  0  0  0  0  0
   15.1316   17.0648   32.3920 C   0  0  0  0  0  0
   14.1609   18.0177   32.7225 C   0  0  0  0  0  0
   13.1725   17.8105   30.6618 C   0  0  0  0  0  0
   16.3186   11.4542   36.0234 C   0  0  0  0  0  0
   15.2230   11.0382   36.8602 C   0  0  0  0  0  0
   16.5920   13.1173   35.5910 S   0  0  0  0  0  0
   14.0859   11.7660   36.7375 N   0  0  0  0  0  0
   15.8258   15.4294   30.7064 N   0  0  0  0  0  0
   12.8075   11.6581   37.4974 C   0  0  1  0  0  0
   17.3744   10.6702   35.5841 C   0  0  0  0  0  0
   13.0660   12.1791   38.9570 C   0  0  0  0  0  0
   18.0121   12.7255   34.6399 C   0  0  0  0  0  0
   18.2965   11.3725   34.8051 C   0  0  0  0  0  0
   16.3048   16.7184   33.2967 C   0  0  0  0  0  0
    9.7371   12.8723   38.4778 C   0  0  0  0  0  0
   15.3562   10.0835   37.6269 O   0  0  0  0  0  0
   12.6379   11.6418   39.9601 O   0  0  0  0  0  0
   11.7173   12.5275   36.7420 C   0  0  0  0  0  0
    9.6050   11.6676   38.6619 O   0  0  0  0  0  0
   14.1903   18.6274   33.9688 N   0  0  0  0  0  0
   12.1919   18.2115   29.7691 N   0  0  0  0  0  0
   17.0702   15.1514   31.4320 C   0  0  0  0  0  0
   10.7654   13.4964   37.5204 C   0  0  0  0  0  0
   18.8010   13.7275   33.8060 C   0  0  0  0  0  0
   13.7919   13.3367   38.9594 O   0  0  0  0  0  0
   16.9120   15.3523   32.9580 C   0  0  1  0  0  0
    8.9921   13.8266   39.1084 O   0  0  0  0  0  0
   18.2396   15.1645   33.7386 C   0  0  0  0  0  0
   12.3159   10.1775   37.5230 C   0  0  0  0  0  0
   14.1034   12.4723   36.0159 H   0  0  0  0  0  0
   15.8096   15.1515   29.7358 H   0  0  0  0  0  0
   17.4570    9.6148   35.7873 H   0  0  0  0  0  0
   19.1578   10.9044   34.3484 H   0  0  0  0  0  0
   15.9994   16.7251   34.3435 H   0  0  0  0  0  0
   17.0588   17.4967   33.1903 H   0  0  0  0  0  0
   11.0962   11.8777   36.1215 H   0  0  0  0  0  0
   12.2124   13.1625   36.0017 H   0  0  0  0  0  0
   14.9183   18.3903   34.6194 H   0  0  0  0  0  0
   13.5184   19.3633   34.1853 H   0  0  0  0  0  0
   11.5248   18.9229   30.0417 H   0  0  0  0  0  0
   12.2206   17.8491   28.8313 H   0  0  0  0  0  0
   17.8870   15.7595   31.0488 H   0  0  0  0  0  0
   17.3688   14.1263   31.2111 H   0  0  0  0  0  0
   10.1900   14.0642   36.7898 H   0  0  0  0  0  0
   11.3593   14.2280   38.0651 H   0  0  0  0  0  0
   19.8173   13.7777   34.2001 H   0  0  0  0  0  0
   18.9239   13.3429   32.7930 H   0  0  0  0  0  0
   14.0849   13.5572   38.0721 H   0  0  0  0  0  0
   16.1932   14.6165   33.2983 H   0  0  0  0  0  0
    9.1125   14.7180   38.7691 H   0  0  0  0  0  0
   18.1332   15.5371   34.7589 H   0  0  0  0  0  0
   18.9924   15.8100   33.2855 H   0  0  0  0  0  0
   11.3173   10.0707   37.9387 H   0  0  0  0  0  0
   12.2847    9.7572   36.5172 H   0  0  0  0  0  0
   12.9612    9.5327   38.1187 H   0  0  0  0  0  0
  1  2  2  0  0  0
  1  6  1  0  0  0
  2  4  1  0  0  0
  2 11  1  0  0  0
  3  6  2  0  0  0
  3  5  1  0  0  0
  4 17  1  0  0  0
  4  5  2  0  0  0
  5 23  1  0  0  0
  6 24  1  0  0  0
  7  9  1  0  0  0
  7  8  1  0  0  0
  7 13  2  0  0  0
  8 10  1  0  0  0
  8 19  2  0  0  0
  9 15  1  0  0  0
 10 12  1  0  0  0
 10 33  1  0  0  0
 11 25  1  0  0  0
 11 34  1  0  0  0
 12 14  1  0  0  0
 12 21  1  0  0  0
 12 32  1  0  0  0
 13 16  1  0  0  0
 13 35  1  0  0  0
 14 20  2  0  0  0
 14 28  1  0  0  0
 15 27  1  0  0  0
 15 16  2  0  0  0
 16 36  1  0  0  0
 17 29  1  0  0  0
 17 37  1  0  0  0
 17 38  1  0  0  0
 18 26  1  0  0  0
 18 22  2  0  0  0
 18 30  1  0  0  0
 21 26  1  0  0  0
 21 39  1  0  0  0
 21 40  1  0  0  0
 23 41  1  0  0  0
 23 42  1  0  0  0
 24 43  1  0  0  0
 24 44  1  0  0  0
 25 29  1  0  0  0
 25 45  1  0  0  0
 25 46  1  0  0  0
 26 47  1  0  0  0
 26 48  1  0  0  0
 27 31  1  0  0  0
 27 49  1  0  0  0
 27 50  1  0  0  0
 28 51  1  0  0  0
 29 31  1  0  0  0
 29 52  1  0  0  0
 30 53  1  0  0  0
 31 54  1  0  0  0
 31 55  1  0  0  0
 32 56  1  0  0  0
 32 57  1  0  0  0
 32 58  1  0  0  0
M  END
> <s_m_entry_id>
41342

> <s_m_entry_name>
dock_pv.459

> <s_m_Source_Path>
/home/csk/Desktop/cluster/DUD-E-result/tysy

> <s_m_Source_File>
dock_pv.maegz

> <i_m_Source_File_Index>
459

> <chembl_id>
CHEMBL168069

> <chembl_pref_name>
None

> <i_lp_mmshare_version>
53161

> <r_lp_tautomer_probability>
1

> <s_lp_Force_Field>
OPLS_2005

> <r_lp_Energy>
9.382033

> <b_lp_Chiralities_Consistent>
1

> <s_lp_Variant>
CHEMBL1952_lig342-3

> <s_i_glide_gridfile>
glide-grid_1syn

> <i_i_glide_lignum>
625

> <i_i_glide_rotatable_bonds>
12

> <r_i_docking_score>
-7.13009462872286

> <r_i_glide_ligand_efficiency>
-0.222815457147589

> <r_i_glide_ligand_efficiency_sa>
-0.707394981324503

> <r_i_glide_ligand_efficiency_ln>
-1.59662254641004

> <r_i_glide_gscore>
-7.13009462872286

> <r_i_glide_lipo>
-3.00335278258871

> <r_i_glide_hbond>
-0.295650536508863

> <r_i_glide_metal>
0

> <r_i_glide_rewards>
-0.732943501279233

> <r_i_glide_evdw>
-50.7971000671387

> <r_i_glide_ecoul>
-9.58583831787109

> <r_i_glide_erotb>
0.941654033892561

> <r_i_glide_esite>
-0.0620710912010142

> <r_i_glide_emodel>
-82.2167026958041

> <r_i_glide_energy>
-60.3829383850098

> <r_i_glide_einternal>
10.9082851409912

> <i_i_glide_confnum>
338

> <i_i_glide_posenum>
64

> <r_i_glide_eff_state_penalty>
0

> <s_user_duplicate_titles>
CHEMBL1952_lig342

> <i_f3d_flags>
0

> <s_m_subgroup_title>
dock_pv

> <s_m_subgroupid>
dock_pv

> <b_m_subgroup_collapsed>
1

$$$$
CHEMBL1952_lig255
                    3D
 Schrodinger Suite 2021-1.
 57 59  0  0  1  0            999 V2000
   14.7079   12.0225   37.2090 C   0  0  0  0  0  0
   13.8018   11.7990   38.3159 C   0  0  0  0  0  0
   13.8257   10.7338   38.9337 O   0  0  0  0  0  0
   13.0197   12.8423   38.6632 N   0  0  0  0  0  0
   12.1603   12.9484   39.8500 C   0  0  1  0  0  0
   11.0075   11.9010   39.8262 C   0  0  0  0  0  0
   12.9867   12.9411   41.1538 C   0  0  0  0  0  0
   13.7914   14.0429   41.1927 O   0  0  0  0  0  0
   12.8925   12.0963   42.0187 O   0  0  0  0  0  0
    9.9535   12.1401   38.7205 C   0  0  0  0  0  0
    9.1535   13.4279   38.9336 C   0  0  0  0  0  0
    8.4846   13.8264   37.8218 O   0  0  0  0  0  0
    9.1301   14.0582   39.9903 O   0  0  0  0  0  0
   14.0752   17.1775   29.4033 N   0  0  0  0  0  0
   13.2407   17.9423   29.9982 C   0  0  0  0  0  0
   13.1180   18.0520   31.3678 N   0  0  0  0  0  0
   14.9934   16.3858   30.1059 C   0  0  0  0  0  0
   15.8178   15.6385   29.5869 O   0  0  0  0  0  0
   14.9385   16.5082   31.6239 C   0  0  0  0  0  0
   13.9683   17.3300   32.2091 C   0  0  0  0  0  0
   13.8803   17.4437   33.5902 C   0  0  0  0  0  0
   14.7819   16.7483   34.3965 C   0  0  0  0  0  0
   15.7798   15.9406   33.8337 C   0  0  0  0  0  0
   15.8547   15.8238   32.4375 C   0  0  0  0  0  0
   16.8372   15.3280   34.7591 C   0  0  0  0  0  0
   16.9930   13.8628   34.7314 N   0  0  0  0  0  0
   12.3047   18.7873   29.1631 C   0  0  0  0  0  0
   16.2536   13.0452   35.5789 C   0  0  0  0  0  0
   14.9491   13.6334   36.5722 S   0  0  0  0  0  0
   15.5034   11.1400   36.6509 N   0  0  0  0  0  0
   16.3406   11.6681   35.7793 C   0  0  0  0  0  0
   17.6804   13.3014   33.5572 C   0  0  0  0  0  0
   18.9593   13.9362   33.0427 C   0  0  0  0  0  0
   19.8572   14.6280   33.7544 C   0  0  0  0  0  0
   13.0041   13.6334   38.0361 H   0  0  0  0  0  0
   11.7113   13.9404   39.8199 H   0  0  0  0  0  0
   11.4053   10.8891   39.7204 H   0  0  0  0  0  0
   10.4972   11.8928   40.7886 H   0  0  0  0  0  0
   13.7833   14.5050   40.3526 H   0  0  0  0  0  0
   10.4374   12.1782   37.7429 H   0  0  0  0  0  0
    9.2491   11.3076   38.6879 H   0  0  0  0  0  0
    8.0387   14.6634   37.9905 H   0  0  0  0  0  0
   12.4396   18.6821   31.7611 H   0  0  0  0  0  0
   13.1413   18.0875   34.0405 H   0  0  0  0  0  0
   14.7245   16.8700   35.4689 H   0  0  0  0  0  0
   16.6424   15.2438   31.9788 H   0  0  0  0  0  0
   17.7845   15.8288   34.5805 H   0  0  0  0  0  0
   16.5901   15.5851   35.7862 H   0  0  0  0  0  0
   12.5918   18.7939   28.1107 H   0  0  0  0  0  0
   11.2845   18.4116   29.2251 H   0  0  0  0  0  0
   12.2929   19.8251   29.4994 H   0  0  0  0  0  0
   17.0407   11.0104   35.2875 H   0  0  0  0  0  0
   17.9520   12.2647   33.7530 H   0  0  0  0  0  0
   16.9920   13.2480   32.7184 H   0  0  0  0  0  0
   19.1564   13.7888   31.9899 H   0  0  0  0  0  0
   20.7362   15.0127   33.2619 H   0  0  0  0  0  0
   19.7485   14.8109   34.8108 H   0  0  0  0  0  0
  1  2  1  0  0  0
  1 29  1  0  0  0
  1 30  2  0  0  0
  2  3  2  0  0  0
  2  4  1  0  0  0
  4  5  1  0  0  0
  4 35  1  0  0  0
  5  6  1  0  0  0
  5  7  1  0  0  0
  5 36  1  0  0  0
  6 10  1  0  0  0
  6 37  1  0  0  0
  6 38  1  0  0  0
  7  9  2  0  0  0
  7  8  1  0  0  0
  8 39  1  0  0  0
 10 11  1  0  0  0
 10 40  1  0  0  0
 10 41  1  0  0  0
 11 12  1  0  0  0
 11 13  2  0  0  0
 12 42  1  0  0  0
 14 15  2  0  0  0
 14 17  1  0  0  0
 15 16  1  0  0  0
 15 27  1  0  0  0
 16 20  1  0  0  0
 16 43  1  0  0  0
 17 18  2  0  0  0
 17 19  1  0  0  0
 19 24  1  0  0  0
 19 20  2  0  0  0
 20 21  1  0  0  0
 21 22  2  0  0  0
 21 44  1  0  0  0
 22 23  1  0  0  0
 22 45  1  0  0  0
 23 24  2  0  0  0
 23 25  1  0  0  0
 24 46  1  0  0  0
 25 26  1  0  0  0
 25 47  1  0  0  0
 25 48  1  0  0  0
 26 28  1  0  0  0
 26 32  1  0  0  0
 27 49  1  0  0  0
 27 50  1  0  0  0
 27 51  1  0  0  0
 28 29  1  0  0  0
 28 31  2  0  0  0
 30 31  1  0  0  0
 31 52  1  0  0  0
 32 33  1  0  0  0
 32 53  1  0  0  0
 32 54  1  0  0  0
 33 34  2  0  0  0
 33 55  1  0  0  0
 34 56  1  0  0  0
 34 57  1  0  0  0
M  END
> <s_m_entry_id>
41343

> <s_m_entry_name>
dock_pv.460

> <s_m_Source_Path>
/home/csk/Desktop/cluster/DUD-E-result/tysy

> <s_m_Source_File>
dock_pv.maegz

> <i_m_Source_File_Index>
460

> <chembl_id>
CHEMBL1099256

> <chembl_pref_name>
None

> <i_lp_mmshare_version>
53161

> <r_lp_tautomer_probability>
0.116051

> <s_lp_Force_Field>
OPLS_2005

> <r_lp_Energy>
11.475391

> <b_lp_Chiralities_Consistent>
1

> <s_lp_Variant>
CHEMBL1952_lig255-2

> <s_i_glide_gridfile>
glide-grid_1syn

> <i_i_glide_lignum>
507

> <i_i_glide_rotatable_bonds>
14

> <r_i_docking_score>
-7.12976191495208

> <r_i_glide_ligand_efficiency>
-0.209698879851532

> <r_i_glide_ligand_efficiency_sa>
-0.679342965083156

> <r_i_glide_ligand_efficiency_ln>
-1.57516439006075

> <r_i_glide_gscore>
-7.12976191495208

> <r_i_glide_lipo>
-3.04560518646814

> <r_i_glide_hbond>
-0.189375514918606

> <r_i_glide_metal>
0

> <r_i_glide_rewards>
-0.753232610228129

> <r_i_glide_evdw>
-55.7500267028809

> <r_i_glide_ecoul>
-8.89550113677979

> <r_i_glide_erotb>
1.03420925534639

> <r_i_glide_esite>
-0.0539313530225884

> <r_i_glide_emodel>
-87.6421471307204

> <r_i_glide_energy>
-64.6455278396606

> <r_i_glide_einternal>
11.3714056015015

> <i_i_glide_confnum>
31

> <i_i_glide_posenum>
188

> <r_i_glide_eff_state_penalty>
0

> <s_user_duplicate_titles>
CHEMBL1952_lig255,CHEMBL1952_lig255

> <i_f3d_flags>
0

> <s_m_subgroup_title>
dock_pv

> <s_m_subgroupid>
dock_pv

> <b_m_subgroup_collapsed>
1

$$$$
CHEMBL1952_lig206
                    3D
 Schrodinger Suite 2021-1.
 56 58  0  0  1  0            999 V2000
   13.3487   17.8730   30.9491 N   0  0  0  0  0  0
   13.5496   17.2772   29.8396 C   0  0  0  0  0  0
   14.5214   16.3231   29.6027 N   0  0  0  0  0  0
   14.1429   17.6197   32.0738 C   0  0  0  0  0  0
   14.0164   18.1639   33.1678 O   0  0  0  0  0  0
   15.2385   16.5805   31.8832 C   0  0  0  0  0  0
   15.3905   15.9563   30.6363 C   0  0  0  0  0  0
   16.3904   15.0118   30.4389 C   0  0  0  0  0  0
   17.2513   14.6866   31.4907 C   0  0  0  0  0  0
   17.1108   15.3077   32.7395 C   0  0  0  0  0  0
   16.1042   16.2577   32.9353 C   0  0  0  0  0  0
   18.0808   14.9901   33.8715 C   0  0  0  0  0  0
   17.8433   13.6524   34.4375 N   0  0  0  0  0  0
   16.6812   13.4066   35.2281 C   0  0  0  0  0  0
   16.0624   14.4385   35.9423 C   0  0  0  0  0  0
   14.9523   14.2045   36.7475 C   0  0  0  0  0  0
   14.4287   12.9154   36.8849 C   0  0  0  0  0  0
   15.0157   11.8744   36.1509 C   0  0  0  0  0  0
   16.1165   12.1269   35.3474 C   0  0  0  0  0  0
   13.2780   12.6924   37.8271 C   0  0  0  0  0  0
   12.5373   13.6210   38.1532 O   0  0  0  0  0  0
   13.1919   11.4523   38.3432 N   0  0  0  0  0  0
   12.2846   10.9545   39.3846 C   0  0  1  0  0  0
   12.8459   11.2951   40.7984 C   0  0  0  0  0  0
   10.8013   11.3352   39.1584 C   0  0  0  0  0  0
   10.3999   10.9556   37.9078 O   0  0  0  0  0  0
   10.1140   11.8794   39.9909 O   0  0  0  0  0  0
   13.1185   12.7892   41.1083 C   0  0  0  0  0  0
   13.5975   13.0056   42.5363 C   0  0  0  0  0  0
   14.7421   12.3168   42.7978 O   0  0  0  0  0  0
   13.0038   13.6953   43.3642 O   0  0  0  0  0  0
   18.6687   12.5764   33.8617 C   0  0  0  0  0  0
   18.9957   11.4793   34.7911 C   0  0  0  0  0  0
   19.2375   10.5927   35.5908 C   0  0  0  0  0  0
   14.5426   10.6044   36.1966 F   0  0  0  0  0  0
   14.6100   15.8946   28.6961 H   0  0  0  0  0  0
   12.9338   17.4919   28.9698 H   0  0  0  0  0  0
   16.5088   14.5289   29.4807 H   0  0  0  0  0  0
   18.0345   13.9578   31.3277 H   0  0  0  0  0  0
   16.0024   16.7388   33.9007 H   0  0  0  0  0  0
   19.0891   15.0511   33.4569 H   0  0  0  0  0  0
   18.0619   15.7589   34.6414 H   0  0  0  0  0  0
   16.4543   15.4355   35.9245 H   0  0  0  0  0  0
   14.5334   15.0288   37.3008 H   0  0  0  0  0  0
   16.4916   11.2864   34.7949 H   0  0  0  0  0  0
   13.8450   10.7721   37.9793 H   0  0  0  0  0  0
   12.3070    9.8669   39.3011 H   0  0  0  0  0  0
   12.1879   10.8789   41.5616 H   0  0  0  0  0  0
   13.7803   10.7442   40.9233 H   0  0  0  0  0  0
   11.1205   10.5993   37.3850 H   0  0  0  0  0  0
   13.8900   13.1904   40.4518 H   0  0  0  0  0  0
   12.2205   13.3848   40.9418 H   0  0  0  0  0  0
   14.9955   12.3837   43.7268 H   0  0  0  0  0  0
   18.1911   12.1412   32.9887 H   0  0  0  0  0  0
   19.6250   12.9844   33.5308 H   0  0  0  0  0  0
   19.4116    9.8281   36.3112 H   0  0  0  0  0  0
  1  2  2  0  0  0
  1  4  1  0  0  0
  2  3  1  0  0  0
  2 37  1  0  0  0
  3  7  1  0  0  0
  3 36  1  0  0  0
  4  5  2  0  0  0
  4  6  1  0  0  0
  6 11  1  0  0  0
  6  7  2  0  0  0
  7  8  1  0  0  0
  8  9  2  0  0  0
  8 38  1  0  0  0
  9 10  1  0  0  0
  9 39  1  0  0  0
 10 11  2  0  0  0
 10 12  1  0  0  0
 11 40  1  0  0  0
 12 13  1  0  0  0
 12 41  1  0  0  0
 12 42  1  0  0  0
 13 14  1  0  0  0
 13 32  1  0  0  0
 14 19  1  0  0  0
 14 15  2  0  0  0
 15 16  1  0  0  0
 15 43  1  0  0  0
 16 17  2  0  0  0
 16 44  1  0  0  0
 17 18  1  0  0  0
 17 20  1  0  0  0
 18 19  2  0  0  0
 18 35  1  0  0  0
 19 45  1  0  0  0
 20 21  2  0  0  0
 20 22  1  0  0  0
 22 23  1  0  0  0
 22 46  1  0  0  0
 23 24  1  0  0  0
 23 25  1  0  0  0
 23 47  1  0  0  0
 24 28  1  0  0  0
 24 48  1  0  0  0
 24 49  1  0  0  0
 25 26  1  0  0  0
 25 27  2  0  0  0
 26 50  1  0  0  0
 28 29  1  0  0  0
 28 51  1  0  0  0
 28 52  1  0  0  0
 29 30  1  0  0  0
 29 31  2  0  0  0
 30 53  1  0  0  0
 32 33  1  0  0  0
 32 54  1  0  0  0
 32 55  1  0  0  0
 33 34  3  0  0  0
 34 56  1  0  0  0
M  END
> <s_m_entry_id>
41344

> <s_m_entry_name>
dock_pv.461

> <s_m_Source_Path>
/home/csk/Desktop/cluster/DUD-E-result/tysy

> <s_m_Source_File>
dock_pv.maegz

> <i_m_Source_File_Index>
461

> <chembl_id>
CHEMBL420280

> <chembl_pref_name>
None

> <i_lp_mmshare_version>
53161

> <r_lp_tautomer_probability>
0.116051

> <s_lp_Force_Field>
OPLS_2005

> <r_lp_Energy>
17.85179

> <b_lp_Chiralities_Consistent>
1

> <s_lp_Variant>
CHEMBL1952_lig206-2

> <s_i_glide_gridfile>
glide-grid_1syn

> <i_i_glide_lignum>
409

> <i_i_glide_rotatable_bonds>
14

> <r_i_docking_score>
-7.12704806681317

> <r_i_glide_ligand_efficiency>
-0.203629944766091

> <r_i_glide_ligand_efficiency_sa>
-0.666087051280532

> <r_i_glide_ligand_efficiency_ln>
-1.56454522697502

> <r_i_glide_gscore>
-7.12704806681317

> <r_i_glide_lipo>
-3.4353709548036

> <r_i_glide_hbond>
-0.0293164093689091

> <r_i_glide_metal>
0

> <r_i_glide_rewards>
-0.957578700956924

> <r_i_glide_evdw>
-56.6566352844238

> <r_i_glide_ecoul>
-6.09757661819458

> <r_i_glide_erotb>
1.05424692177732

> <r_i_glide_esite>
-0.0115606665106798

> <r_i_glide_emodel>
-87.1176186545618

> <r_i_glide_energy>
-62.7542119026184

> <r_i_glide_einternal>
9.30484676361084

> <i_i_glide_confnum>
46

> <i_i_glide_posenum>
215

> <r_i_glide_eff_state_penalty>
0

> <s_user_duplicate_titles>
CHEMBL1952_lig206,170249

> <i_f3d_flags>
0

> <s_m_subgroup_title>
dock_pv

> <s_m_subgroupid>
dock_pv

> <b_m_subgroup_collapsed>
1

$$$$
CHEMBL1952_lig254
                    3D
 Schrodinger Suite 2021-1.
 56 58  0  0  1  0            999 V2000
   15.9373   13.1229   35.8864 C   0  0  0  0  0  0
   14.6532   13.1290   36.5388 C   0  0  0  0  0  0
   13.7827   13.9559   36.2546 O   0  0  0  0  0  0
   14.4539   12.1560   37.4433 N   0  0  0  0  0  0
   13.2035   11.9112   38.1920 C   0  0  1  0  0  0
   12.7152   13.1651   38.9889 C   0  0  0  0  0  0
   12.0832   11.3185   37.3126 C   0  0  0  0  0  0
   11.6598   12.2257   36.3883 O   0  0  0  0  0  0
   11.6376   10.2055   37.4782 O   0  0  0  0  0  0
   13.6623   13.5833   40.1334 C   0  0  0  0  0  0
   13.0452   13.3469   41.5051 C   0  0  0  0  0  0
   12.6204   12.0596   41.6374 O   0  0  0  0  0  0
   12.9350   14.2067   42.3762 O   0  0  0  0  0  0
   13.5536   18.9551   32.7781 N   0  0  0  0  0  0
   12.9940   18.8422   31.5382 C   0  0  0  0  0  0
   13.3445   17.9137   30.7222 N   0  0  0  0  0  0
   14.5881   18.2361   33.2577 C   0  0  0  0  0  0
   14.9968   18.4247   34.3915 O   0  0  0  0  0  0
   15.0982   17.2103   32.2740 C   0  0  0  0  0  0
   14.4020   17.0583   31.0722 C   0  0  0  0  0  0
   14.7932   16.0712   30.1711 C   0  0  0  0  0  0
   15.8801   15.2442   30.4737 C   0  0  0  0  0  0
   16.5988   15.4093   31.6679 C   0  0  0  0  0  0
   16.2142   16.4244   32.5549 C   0  0  0  0  0  0
   17.8268   14.5155   31.9067 C   0  0  0  0  0  0
   18.3662   14.4481   33.2810 N   0  0  0  0  0  0
   11.9325   19.8327   31.1755 C   0  0  0  0  0  0
   17.6442   13.8053   34.2721 C   0  0  0  0  0  0
   16.4306   14.6278   35.1908 S   0  0  0  0  0  0
   16.7662   12.1380   35.6093 N   0  0  0  0  0  0
   17.7130   12.4985   34.7564 C   0  0  0  0  0  0
   19.8321   14.3800   33.2446 C   0  0  0  0  0  0
   20.5067   14.5319   34.6070 C   0  0  0  0  0  0
   15.2169   11.5235   37.6320 H   0  0  0  0  0  0
   13.4433   11.1288   38.9130 H   0  0  0  0  0  0
   11.7127   12.9774   39.3777 H   0  0  0  0  0  0
   12.5698   14.0299   38.3437 H   0  0  0  0  0  0
   12.2424   12.9969   36.3598 H   0  0  0  0  0  0
   13.9494   14.6311   40.0343 H   0  0  0  0  0  0
   14.5903   13.0252   40.0816 H   0  0  0  0  0  0
   12.7934   11.5373   40.8506 H   0  0  0  0  0  0
   13.2134   19.6554   33.4267 H   0  0  0  0  0  0
   14.2623   15.9575   29.2393 H   0  0  0  0  0  0
   16.1767   14.4833   29.7637 H   0  0  0  0  0  0
   16.7941   16.6224   33.4436 H   0  0  0  0  0  0
   18.5929   14.8356   31.1967 H   0  0  0  0  0  0
   17.5677   13.4967   31.6099 H   0  0  0  0  0  0
   10.9959   19.5087   31.6146 H   0  0  0  0  0  0
   12.1554   20.8332   31.5545 H   0  0  0  0  0  0
   11.7915   19.9034   30.0947 H   0  0  0  0  0  0
   18.4247   11.7603   34.4156 H   0  0  0  0  0  0
   20.1472   13.4300   32.8237 H   0  0  0  0  0  0
   20.2368   15.1258   32.5688 H   0  0  0  0  0  0
   21.5892   14.5936   34.5082 H   0  0  0  0  0  0
   20.1449   15.4112   35.1452 H   0  0  0  0  0  0
   20.3025   13.6421   35.1908 H   0  0  0  0  0  0
  1  2  1  0  0  0
  1 29  1  0  0  0
  1 30  2  0  0  0
  2  3  2  0  0  0
  2  4  1  0  0  0
  4  5  1  0  0  0
  4 34  1  0  0  0
  5  6  1  0  0  0
  5  7  1  0  0  0
  5 35  1  0  0  0
  6 10  1  0  0  0
  6 36  1  0  0  0
  6 37  1  0  0  0
  7  9  2  0  0  0
  7  8  1  0  0  0
  8 38  1  0  0  0
 10 11  1  0  0  0
 10 39  1  0  0  0
 10 40  1  0  0  0
 11 12  1  0  0  0
 11 13  2  0  0  0
 12 41  1  0  0  0
 14 15  1  0  0  0
 14 17  1  0  0  0
 14 42  1  0  0  0
 15 27  1  0  0  0
 15 16  2  0  0  0
 16 20  1  0  0  0
 17 19  1  0  0  0
 17 18  2  0  0  0
 19 20  2  0  0  0
 19 24  1  0  0  0
 20 21  1  0  0  0
 21 22  2  0  0  0
 21 43  1  0  0  0
 22 23  1  0  0  0
 22 44  1  0  0  0
 23 24  2  0  0  0
 23 25  1  0  0  0
 24 45  1  0  0  0
 25 26  1  0  0  0
 25 46  1  0  0  0
 25 47  1  0  0  0
 26 28  1  0  0  0
 26 32  1  0  0  0
 27 48  1  0  0  0
 27 49  1  0  0  0
 27 50  1  0  0  0
 28 29  1  0  0  0
 28 31  2  0  0  0
 30 31  1  0  0  0
 31 51  1  0  0  0
 32 33  1  0  0  0
 32 52  1  0  0  0
 32 53  1  0  0  0
 33 54  1  0  0  0
 33 55  1  0  0  0
 33 56  1  0  0  0
M  END
> <s_m_entry_id>
41345

> <s_m_entry_name>
dock_pv.462

> <s_m_Source_Path>
/home/csk/Desktop/cluster/DUD-E-result/tysy

> <s_m_Source_File>
dock_pv.maegz

> <i_m_Source_File_Index>
462

> <chembl_id>
CHEMBL1097599

> <chembl_pref_name>
None

> <i_lp_mmshare_version>
53161

> <r_lp_tautomer_probability>
0.883938

> <s_lp_Force_Field>
OPLS_2005

> <r_lp_Energy>
20.529979

> <b_lp_Chiralities_Consistent>
1

> <s_lp_Variant>
CHEMBL1952_lig254-1

> <s_i_glide_gridfile>
glide-grid_1syn

> <i_i_glide_lignum>
504

> <i_i_glide_rotatable_bonds>
13

> <r_i_docking_score>
-7.11865310275901

> <r_i_glide_ligand_efficiency>
-0.215716760689667

> <r_i_glide_ligand_efficiency_sa>
-0.691918914661168

> <r_i_glide_ligand_efficiency_ln>
-1.58315159164046

> <r_i_glide_gscore>
-7.11865310275901

> <r_i_glide_lipo>
-3.09193476757791

> <r_i_glide_hbond>
-0.132967477928741

> <r_i_glide_metal>
0

> <r_i_glide_rewards>
-1.01065330812335

> <r_i_glide_evdw>
-55.9345207214355

> <r_i_glide_ecoul>
-6.36932706832886

> <r_i_glide_erotb>
0.902209274040011

> <r_i_glide_esite>
-0.0331817268479229

> <r_i_glide_emodel>
-81.9104661153224

> <r_i_glide_energy>
-62.3038477897644

> <r_i_glide_einternal>
14.0842056274414

> <i_i_glide_confnum>
47

> <i_i_glide_posenum>
239

> <r_i_glide_eff_state_penalty>
0

> <s_user_duplicate_titles>
CHEMBL1952_lig254,625030

> <i_f3d_flags>
0

> <s_m_subgroup_title>
dock_pv

> <s_m_subgroupid>
dock_pv

> <b_m_subgroup_collapsed>
1

$$$$
CHEMBL1952_lig37
                    3D
 Schrodinger Suite 2021-1.
 26 28  0  0  1  0            999 V2000
   15.4543   16.3891   31.7755 C   0  0  0  0  0  0
   15.9292   16.4675   33.1453 C   0  0  0  0  0  0
   16.9080   15.6542   33.6162 N   0  0  0  0  0  0
   17.0955   14.5766   31.4785 N   0  0  0  0  0  0
   16.1202   15.3855   30.9883 C   0  0  0  0  0  0
   14.4413   17.1966   31.1366 C   0  0  0  0  0  0
   17.4368   14.7521   32.7668 C   0  0  0  0  0  0
   15.3927   17.3925   33.9934 O   0  0  0  0  0  0
   14.1560   16.9824   29.7450 C   0  0  0  0  0  0
   13.6810   18.2354   31.7786 C   0  0  0  0  0  0
   15.7851   15.1865   29.6421 C   0  0  0  0  0  0
   14.8263   15.9714   29.0356 C   0  0  0  0  0  0
   13.2001   17.7832   29.0701 C   0  0  0  0  0  0
   12.7484   18.9989   31.0853 C   0  0  0  0  0  0
   12.5052   18.7762   29.7424 C   0  0  0  0  0  0
   11.8255   20.3934   31.9898 Br  0  0  0  0  0  0
   18.5094   13.8260   33.3074 C   0  0  0  0  0  0
   14.6789   17.8837   33.5984 H   0  0  0  0  0  0
   13.7776   18.5149   32.8080 H   0  0  0  0  0  0
   16.2879   14.4131   29.0771 H   0  0  0  0  0  0
   14.5901   15.8085   27.9938 H   0  0  0  0  0  0
   13.0040   17.6199   28.0205 H   0  0  0  0  0  0
   11.7707   19.3772   29.2208 H   0  0  0  0  0  0
   18.7250   14.0053   34.3618 H   0  0  0  0  0  0
   19.4368   13.9472   32.7450 H   0  0  0  0  0  0
   18.1943   12.7870   33.1993 H   0  0  0  0  0  0
  1  2  1  0  0  0
  1  5  2  0  0  0
  1  6  1  0  0  0
  2  3  2  0  0  0
  2  8  1  0  0  0
  3  7  1  0  0  0
  4  5  1  0  0  0
  4  7  2  0  0  0
  5 11  1  0  0  0
  6  9  2  0  0  0
  6 10  1  0  0  0
  7 17  1  0  0  0
  8 18  1  0  0  0
  9 12  1  0  0  0
  9 13  1  0  0  0
 10 14  2  0  0  0
 10 19  1  0  0  0
 11 12  2  0  0  0
 11 20  1  0  0  0
 12 21  1  0  0  0
 13 15  2  0  0  0
 13 22  1  0  0  0
 14 15  1  0  0  0
 14 16  1  0  0  0
 15 23  1  0  0  0
 17 24  1  0  0  0
 17 25  1  0  0  0
 17 26  1  0  0  0
M  END
> <s_m_entry_id>
41346

> <s_m_entry_name>
dock_pv.463

> <s_m_Source_Path>
/home/csk/Desktop/cluster/DUD-E-result/tysy

> <s_m_Source_File>
dock_pv.maegz

> <i_m_Source_File_Index>
463

> <chembl_id>
CHEMBL307015

> <chembl_pref_name>
None

> <i_lp_mmshare_version>
53161

> <r_lp_tautomer_probability>
1

> <s_lp_Force_Field>
OPLS_2005

> <r_lp_Energy>
14.527536

> <b_lp_Chiralities_Consistent>
1

> <s_lp_Variant>
CHEMBL1952_lig37-1

> <s_i_glide_gridfile>
glide-grid_1syn

> <i_i_glide_lignum>
51

> <i_i_glide_rotatable_bonds>
1

> <r_i_docking_score>
-7.11812149501609

> <r_i_glide_ligand_efficiency>
-0.418713029118593

> <r_i_glide_ligand_efficiency_sa>
-1.07662910252461

> <r_i_glide_ligand_efficiency_ln>
-1.85695938527749

> <r_i_glide_gscore>
-7.11812149501609

> <r_i_glide_lipo>
-3.12309352286995

> <r_i_glide_hbond>
0

> <r_i_glide_metal>
0

> <r_i_glide_rewards>
-1.83219058005439

> <r_i_glide_evdw>
-37.5345993041992

> <r_i_glide_ecoul>
-1.9073828458786

> <r_i_glide_erotb>
0

> <r_i_glide_esite>
0

> <r_i_glide_emodel>
-56.744007013466

> <r_i_glide_energy>
-39.4419821500778

> <r_i_glide_einternal>
0.00324013852514327

> <i_i_glide_confnum>
1

> <i_i_glide_posenum>
50

> <r_i_glide_eff_state_penalty>
0

> <s_user_duplicate_titles>
CHEMBL1952_lig37

> <i_f3d_flags>
0

> <s_m_subgroup_title>
dock_pv

> <s_m_subgroupid>
dock_pv

> <b_m_subgroup_collapsed>
1

$$$$
CHEMBL1952_lig242
                    3D
 Schrodinger Suite 2021-1.
 62 64  0  0  1  0            999 V2000
   13.7881   16.8968   29.4329 N   0  0  0  0  0  0
   12.9206   17.5475   30.2680 C   0  0  0  0  0  0
   13.1066   17.5773   31.5284 N   0  0  0  0  0  0
   14.9331   16.2598   29.7914 C   0  0  0  0  0  0
   15.6538   15.7238   28.9586 O   0  0  0  0  0  0
   15.1992   16.3404   31.2773 C   0  0  0  0  0  0
   14.2544   17.0043   32.0654 C   0  0  0  0  0  0
   14.4451   17.1417   33.4289 C   0  0  0  0  0  0
   15.6222   16.6743   33.9909 C   0  0  0  0  0  0
   16.6031   16.0501   33.2152 C   0  0  0  0  0  0
   16.3686   15.8341   31.8508 C   0  0  0  0  0  0
   17.9659   15.7471   33.8360 C   0  0  0  0  0  0
   18.2568   14.3209   33.9866 N   0  0  0  0  0  0
   17.4606   13.5174   34.8536 C   0  0  0  0  0  0
   16.5958   14.0843   35.7959 C   0  0  0  0  0  0
   15.7178   13.3068   36.5388 C   0  0  0  0  0  0
   15.6938   11.9137   36.4070 C   0  0  0  0  0  0
   16.6178   11.2946   35.5285 C   0  0  0  0  0  0
   17.4849   12.1227   34.7939 C   0  0  0  0  0  0
   14.6792   11.1509   37.2148 C   0  0  0  0  0  0
   15.0126   10.2914   38.0322 O   0  0  0  0  0  0
   13.4062   11.5030   36.9722 N   0  0  0  0  0  0
   12.2200   10.8585   37.5472 C   0  0  1  0  0  0
   11.1659   11.9379   37.9263 C   0  0  0  0  0  0
   11.6477    9.8160   36.5569 C   0  0  0  0  0  0
   10.7201    9.0376   37.1869 O   0  0  0  0  0  0
   11.9868    9.7163   35.3950 O   0  0  0  0  0  0
   11.6660   13.1390   38.7640 C   0  0  0  0  0  0
   12.1166   12.7850   40.1818 C   0  0  0  0  0  0
   13.3491   12.2021   40.2172 O   0  0  0  0  0  0
   11.4464   13.0239   41.1856 O   0  0  0  0  0  0
   11.7039   18.2284   29.7189 C   0  0  0  0  0  0
   19.2288   13.7508   33.0408 C   0  0  0  0  0  0
   20.6184   14.3915   33.1022 C   0  0  0  0  0  0
   16.6935    9.8280   35.2523 N   0  3  0  0  0  0
   15.7888    9.0724   35.5924 O   0  0  0  0  0  0
   17.6738    9.4280   34.6297 O   0  5  0  0  0  0
   13.6197   16.9116   28.4412 H   0  0  0  0  0  0
   13.7096   17.6555   34.0311 H   0  0  0  0  0  0
   15.7805   16.8380   35.0380 H   0  0  0  0  0  0
   17.1245   15.3591   31.2382 H   0  0  0  0  0  0
   18.1244   16.2296   34.7916 H   0  0  0  0  0  0
   18.6924   16.2255   33.1906 H   0  0  0  0  0  0
   16.5849   15.1430   35.9740 H   0  0  0  0  0  0
   15.0585   13.8112   37.2321 H   0  0  0  0  0  0
   18.1378   11.6292   34.1000 H   0  0  0  0  0  0
   13.2296   12.1380   36.2075 H   0  0  0  0  0  0
   12.5120   10.3156   38.4480 H   0  0  0  0  0  0
   10.3361   11.4723   38.4609 H   0  0  0  0  0  0
   10.7240   12.3458   37.0149 H   0  0  0  0  0  0
   10.6025    9.2586   38.1105 H   0  0  0  0  0  0
   10.8368   13.8397   38.8615 H   0  0  0  0  0  0
   12.4573   13.6858   38.2510 H   0  0  0  0  0  0
   13.7298   12.0602   39.3466 H   0  0  0  0  0  0
   11.3931   19.0124   30.4080 H   0  0  0  0  0  0
   11.8948   18.7331   28.7813 H   0  0  0  0  0  0
   10.8755   17.5337   29.5919 H   0  0  0  0  0  0
   19.3966   12.6954   33.1939 H   0  0  0  0  0  0
   18.8326   13.8385   32.0285 H   0  0  0  0  0  0
   21.3005   13.8966   32.4127 H   0  0  0  0  0  0
   20.6006   15.4266   32.7919 H   0  0  0  0  0  0
   21.0422   14.3222   34.1035 H   0  0  0  0  0  0
  1  2  1  0  0  0
  1  4  1  0  0  0
  1 38  1  0  0  0
  2 32  1  0  0  0
  2  3  2  0  0  0
  3  7  1  0  0  0
  4  6  1  0  0  0
  4  5  2  0  0  0
  6 11  1  0  0  0
  6  7  2  0  0  0
  7  8  1  0  0  0
  8  9  2  0  0  0
  8 39  1  0  0  0
  9 10  1  0  0  0
  9 40  1  0  0  0
 10 11  2  0  0  0
 10 12  1  0  0  0
 11 41  1  0  0  0
 12 13  1  0  0  0
 12 42  1  0  0  0
 12 43  1  0  0  0
 13 14  1  0  0  0
 13 33  1  0  0  0
 14 19  1  0  0  0
 14 15  2  0  0  0
 15 16  1  0  0  0
 15 44  1  0  0  0
 16 17  2  0  0  0
 16 45  1  0  0  0
 17 18  1  0  0  0
 17 20  1  0  0  0
 18 19  2  0  0  0
 18 35  1  0  0  0
 19 46  1  0  0  0
 20 21  2  0  0  0
 20 22  1  0  0  0
 22 23  1  0  0  0
 22 47  1  0  0  0
 23 24  1  0  0  0
 23 25  1  0  0  0
 23 48  1  0  0  0
 24 28  1  0  0  0
 24 49  1  0  0  0
 24 50  1  0  0  0
 25 26  1  0  0  0
 25 27  2  0  0  0
 26 51  1  0  0  0
 28 29  1  0  0  0
 28 52  1  0  0  0
 28 53  1  0  0  0
 29 30  1  0  0  0
 29 31  2  0  0  0
 30 54  1  0  0  0
 32 55  1  0  0  0
 32 56  1  0  0  0
 32 57  1  0  0  0
 33 34  1  0  0  0
 33 58  1  0  0  0
 33 59  1  0  0  0
 34 60  1  0  0  0
 34 61  1  0  0  0
 34 62  1  0  0  0
 35 36  2  0  0  0
 35 37  1  0  0  0
M  CHG  2  35   1  37  -1
M  END
> <s_m_entry_id>
41347

> <s_m_entry_name>
dock_pv.464

> <s_m_Source_Path>
/home/csk/Desktop/cluster/DUD-E-result/tysy

> <s_m_Source_File>
dock_pv.maegz

> <i_m_Source_File_Index>
464

> <chembl_id>
CHEMBL101425

> <chembl_pref_name>
None

> <i_lp_mmshare_version>
53161

> <r_lp_tautomer_probability>
0.883938

> <s_lp_Force_Field>
OPLS_2005

> <r_lp_Energy>
25.362923

> <b_lp_Chiralities_Consistent>
1

> <s_lp_Variant>
CHEMBL1952_lig242-1

> <s_i_glide_gridfile>
glide-grid_1syn

> <i_i_glide_lignum>
480

> <i_i_glide_rotatable_bonds>
14

> <r_i_docking_score>
-7.11555908150281

> <r_i_glide_ligand_efficiency>
-0.192312407608184

> <r_i_glide_ligand_efficiency_sa>
-0.640827606203309

> <r_i_glide_ligand_efficiency_ln>
-1.54319795240559

> <r_i_glide_gscore>
-7.11555908150281

> <r_i_glide_lipo>
-3.59970379953631

> <r_i_glide_hbond>
-0.0760105054325556

> <r_i_glide_metal>
0

> <r_i_glide_rewards>
-0.655104466414715

> <r_i_glide_evdw>
-50.4128875732422

> <r_i_glide_ecoul>
-6.67182302474976

> <r_i_glide_erotb>
0.783337528930063

> <r_i_glide_esite>
-0.0466600066747175

> <r_i_glide_emodel>
-71.8651478136393

> <r_i_glide_energy>
-57.0847105979919

> <r_i_glide_einternal>
10.5080718994141

> <i_i_glide_confnum>
52

> <i_i_glide_posenum>
219

> <r_i_glide_eff_state_penalty>
0

> <s_user_duplicate_titles>
CHEMBL1952_lig242,CHEMBL1952_lig242,171499

> <i_f3d_flags>
0

> <s_m_subgroup_title>
dock_pv

> <s_m_subgroupid>
dock_pv

> <b_m_subgroup_collapsed>
1

$$$$
CHEMBL1952_lig415
                    3D
 Schrodinger Suite 2021-1.
 31 33  0  0  1  0            999 V2000
   14.8091   17.7263   32.6721 C   0  0  0  0  0  0
   15.2846   16.6294   31.8498 C   0  0  0  0  0  0
   13.7818   18.5123   32.2909 N   0  0  0  0  0  0
   13.2190   18.2756   31.0995 C   0  0  0  0  0  0
   13.5575   17.3064   30.2349 N   0  0  0  0  0  0
   16.3530   15.6771   32.1007 C   0  0  0  0  0  0
   14.5854   16.4952   30.6007 C   0  0  0  0  0  0
   17.3158   15.8310   33.5918 S   0  0  0  0  0  0
   16.6875   14.6932   31.1552 C   0  0  0  0  0  0
   15.3901   18.0204   33.8675 O   0  0  0  0  0  0
   16.5493   12.6859   35.9892 N   0  0  0  0  0  0
   15.3091   12.9340   36.4489 N   0  0  0  0  0  0
   14.9550   15.5000   29.6726 C   0  0  0  0  0  0
   12.1921   19.1254   30.7420 N   0  0  0  0  0  0
   15.9902   14.6244   29.9551 C   0  0  0  0  0  0
   16.5073   14.7266   34.7106 C   0  0  0  0  0  0
   17.1471   13.5661   35.1452 C   0  0  0  0  0  0
   15.2240   14.9900   35.1914 C   0  0  0  0  0  0
   14.6566   14.0644   36.0655 C   0  0  0  0  0  0
   17.7974   13.6794   31.4082 C   0  0  0  0  0  0
   14.9119   18.7577   34.2550 H   0  0  0  0  0  0
   14.4218   15.4185   28.7386 H   0  0  0  0  0  0
   11.6375   18.9428   29.9181 H   0  0  0  0  0  0
   11.9137   19.8266   31.4088 H   0  0  0  0  0  0
   16.2457   13.8666   29.2255 H   0  0  0  0  0  0
   18.1453   13.3214   34.8100 H   0  0  0  0  0  0
   14.6775   15.8718   34.9001 H   0  0  0  0  0  0
   13.6657   14.2173   36.4704 H   0  0  0  0  0  0
   17.7284   13.2727   32.4136 H   0  0  0  0  0  0
   17.7358   12.8156   30.7474 H   0  0  0  0  0  0
   18.7787   14.1426   31.3002 H   0  0  0  0  0  0
  1  2  1  0  0  0
  1  3  2  0  0  0
  1 10  1  0  0  0
  2  6  2  0  0  0
  2  7  1  0  0  0
  3  4  1  0  0  0
  4  5  2  0  0  0
  4 14  1  0  0  0
  5  7  1  0  0  0
  6  8  1  0  0  0
  6  9  1  0  0  0
  7 13  2  0  0  0
  8 16  1  0  0  0
  9 20  1  0  0  0
  9 15  2  0  0  0
 10 21  1  0  0  0
 11 17  2  0  0  0
 11 12  1  0  0  0
 12 19  2  0  0  0
 13 15  1  0  0  0
 13 22  1  0  0  0
 14 23  1  0  0  0
 14 24  1  0  0  0
 15 25  1  0  0  0
 16 17  1  0  0  0
 16 18  2  0  0  0
 17 26  1  0  0  0
 18 19  1  0  0  0
 18 27  1  0  0  0
 19 28  1  0  0  0
 20 29  1  0  0  0
 20 30  1  0  0  0
 20 31  1  0  0  0
M  END
> <s_m_entry_id>
41349

> <s_m_entry_name>
dock_pv.466

> <s_m_Source_Path>
/home/csk/Desktop/cluster/DUD-E-result/tysy

> <s_m_Source_File>
dock_pv.maegz

> <i_m_Source_File_Index>
466

> <chembl_id>
CHEMBL349723

> <chembl_pref_name>
None

> <i_lp_mmshare_version>
53161

> <r_lp_tautomer_probability>
1

> <s_lp_Force_Field>
OPLS_2005

> <r_lp_Energy>
16.634613

> <b_lp_Chiralities_Consistent>
1

> <s_lp_Variant>
CHEMBL1952_lig415-1

> <s_i_glide_gridfile>
glide-grid_1syn

> <i_i_glide_lignum>
809

> <i_i_glide_rotatable_bonds>
3

> <r_i_docking_score>
-7.09991213587001

> <r_i_glide_ligand_efficiency>
-0.354995606793501

> <r_i_glide_ligand_efficiency_sa>
-0.963606327931841

> <r_i_glide_ligand_efficiency_ln>
-1.77687383683367

> <r_i_glide_gscore>
-7.09991213587001

> <r_i_glide_lipo>
-3.28496039993314

> <r_i_glide_hbond>
-0.0116154684297444

> <r_i_glide_metal>
0

> <r_i_glide_rewards>
-1.7925461413849

> <r_i_glide_evdw>
-41.7598457336426

> <r_i_glide_ecoul>
-2.19977426528931

> <r_i_glide_erotb>
0.445685152489637

> <r_i_glide_esite>
-0.0385168521363343

> <r_i_glide_emodel>
-62.3517313093768

> <r_i_glide_energy>
-43.9596199989319

> <r_i_glide_einternal>
2.44237375259399

> <i_i_glide_confnum>
4

> <i_i_glide_posenum>
254

> <r_i_glide_eff_state_penalty>
0

> <s_user_duplicate_titles>
CHEMBL1952_lig415,272820

> <i_f3d_flags>
0

> <s_m_subgroup_title>
dock_pv

> <s_m_subgroupid>
dock_pv

> <b_m_subgroup_collapsed>
1

$$$$
CHEMBL1952_lig113
                    3D
 Schrodinger Suite 2021-1.
 57 59  0  0  1  0            999 V2000
   13.7662   17.6040   29.4805 N   0  0  0  0  0  0
   12.9773   18.7890   31.4278 N   0  0  0  0  0  0
   14.5821   16.8650   30.2756 C   0  0  0  0  0  0
   13.7917   18.0625   32.2223 C   0  0  0  0  0  0
   14.6392   17.0550   31.6862 C   0  0  0  0  0  0
   13.0111   18.5285   30.1057 C   0  0  0  0  0  0
   15.0212   10.7833   37.3784 C   0  0  0  0  0  0
   15.3480   15.9410   29.6354 N   0  0  0  0  0  0
   13.9738   11.2294   38.0908 N   0  0  0  0  0  0
   13.7899    9.9644   40.2978 C   0  0  0  0  0  0
   17.3944   14.6737   33.9325 N   0  0  0  0  0  0
   19.7920   14.7503   34.3905 C   0  0  0  0  0  0
   15.5310   16.2407   32.4276 C   0  0  0  0  0  0
   13.0905   10.5284   39.0312 C   0  0  1  0  0  0
   20.8917   14.2280   34.3910 C   0  0  0  0  0  0
   16.3257   15.2961   31.7643 C   0  0  0  0  0  0
   15.7160   11.8252   36.5249 C   0  0  0  0  0  0
   17.3032   14.3694   32.4958 C   0  0  0  0  0  0
   11.3871   13.5737   40.7922 C   0  0  0  0  0  0
   13.8475   18.2709   33.5737 O   0  0  0  0  0  0
   16.9199   13.7179   34.8456 C   0  0  0  0  0  0
   15.4038    9.6111   37.4193 O   0  0  0  0  0  0
   13.4428   10.2286   41.4317 O   0  0  0  0  0  0
   12.1917   19.2934   29.3029 N   0  0  0  0  0  0
   16.1918   15.1830   30.3793 C   0  0  0  0  0  0
   11.6313   13.8289   41.9698 O   0  0  0  0  0  0
   16.7153   11.4380   35.6207 C   0  0  0  0  0  0
   15.3871   13.1904   36.6221 C   0  0  0  0  0  0
   15.9884   14.1273   35.7935 C   0  0  0  0  0  0
   17.3185   12.3805   34.7912 C   0  0  0  0  0  0
   11.9265   11.4997   39.3837 C   0  0  0  0  0  0
   12.3810   12.9111   39.8486 C   0  0  0  0  0  0
   18.5139   15.4745   34.4128 C   0  0  0  0  0  0
   14.8052    9.1165   39.9642 O   0  0  0  0  0  0
   10.1913   13.8286   40.1900 O   0  0  0  0  0  0
   13.7394   12.1998   37.9629 H   0  0  0  0  0  0
   15.5837   16.3666   33.4996 H   0  0  0  0  0  0
   12.6667    9.6681   38.5092 H   0  0  0  0  0  0
   21.8649   13.7923   34.3911 H   0  0  0  0  0  0
   16.9931   13.3375   32.3215 H   0  0  0  0  0  0
   18.2861   14.4676   32.0293 H   0  0  0  0  0  0
   13.3197   19.0384   33.8226 H   0  0  0  0  0  0
   12.0903   19.0021   28.3451 H   0  0  0  0  0  0
   11.4403   19.7865   29.7676 H   0  0  0  0  0  0
   16.7763   14.4590   29.8280 H   0  0  0  0  0  0
   17.0179   10.4040   35.5343 H   0  0  0  0  0  0
   14.6576   13.5603   37.3261 H   0  0  0  0  0  0
   15.6978   15.1660   35.8597 H   0  0  0  0  0  0
   18.0688   12.0678   34.0781 H   0  0  0  0  0  0
   11.2947   11.6124   38.5003 H   0  0  0  0  0  0
   11.2698   11.0389   40.1255 H   0  0  0  0  0  0
   13.3255   12.8401   40.3903 H   0  0  0  0  0  0
   12.5682   13.5681   38.9981 H   0  0  0  0  0  0
   18.6154   16.3659   33.7926 H   0  0  0  0  0  0
   18.3393   15.8288   35.4284 H   0  0  0  0  0  0
   14.9717    9.1214   39.0103 H   0  0  0  0  0  0
   10.1705   13.5837   39.2621 H   0  0  0  0  0  0
  1  3  2  0  0  0
  1  6  1  0  0  0
  2  6  2  0  0  0
  2  4  1  0  0  0
  3  5  1  0  0  0
  3  8  1  0  0  0
  4 20  1  0  0  0
  4  5  2  0  0  0
  5 13  1  0  0  0
  6 24  1  0  0  0
  7 17  1  0  0  0
  7  9  1  0  0  0
  7 22  2  0  0  0
  8 25  2  0  0  0
  9 14  1  0  0  0
  9 36  1  0  0  0
 10 14  1  0  0  0
 10 23  2  0  0  0
 10 34  1  0  0  0
 11 18  1  0  0  0
 11 21  1  0  0  0
 11 33  1  0  0  0
 12 33  1  0  0  0
 12 15  3  0  0  0
 13 16  2  0  0  0
 13 37  1  0  0  0
 14 31  1  0  0  0
 14 38  1  0  0  0
 15 39  1  0  0  0
 16 25  1  0  0  0
 16 18  1  0  0  0
 17 27  2  0  0  0
 17 28  1  0  0  0
 18 40  1  0  0  0
 18 41  1  0  0  0
 19 32  1  0  0  0
 19 26  2  0  0  0
 19 35  1  0  0  0
 20 42  1  0  0  0
 21 29  1  0  0  0
 21 30  2  0  0  0
 24 43  1  0  0  0
 24 44  1  0  0  0
 25 45  1  0  0  0
 27 30  1  0  0  0
 27 46  1  0  0  0
 28 29  2  0  0  0
 28 47  1  0  0  0
 29 48  1  0  0  0
 30 49  1  0  0  0
 31 32  1  0  0  0
 31 50  1  0  0  0
 31 51  1  0  0  0
 32 52  1  0  0  0
 32 53  1  0  0  0
 33 54  1  0  0  0
 33 55  1  0  0  0
 34 56  1  0  0  0
 35 57  1  0  0  0
M  END
> <s_m_entry_id>
41350

> <s_m_entry_name>
dock_pv.467

> <s_m_Source_Path>
/home/csk/Desktop/cluster/DUD-E-result/tysy

> <s_m_Source_File>
dock_pv.maegz

> <i_m_Source_File_Index>
467

> <chembl_id>
CHEMBL114987

> <chembl_pref_name>
None

> <i_lp_mmshare_version>
53161

> <r_lp_tautomer_probability>
1

> <s_lp_Force_Field>
OPLS_2005

> <r_lp_Energy>
10.805988

> <b_lp_Chiralities_Consistent>
1

> <s_lp_Variant>
CHEMBL1952_lig113-1

> <s_i_glide_gridfile>
glide-grid_1syn

> <i_i_glide_lignum>
288

> <i_i_glide_rotatable_bonds>
15

> <r_i_docking_score>
-7.09208884519298

> <r_i_glide_ligand_efficiency>
-0.202631109862657

> <r_i_glide_ligand_efficiency_sa>
-0.662819796082341

> <r_i_glide_ligand_efficiency_ln>
-1.55687090195127

> <r_i_glide_gscore>
-7.09208884519298

> <r_i_glide_lipo>
-3.18414078687852

> <r_i_glide_hbond>
-0.530578692577275

> <r_i_glide_metal>
0

> <r_i_glide_rewards>
-0.116151241516256

> <r_i_glide_evdw>
-52.2286033630371

> <r_i_glide_ecoul>
-10.7369108200073

> <r_i_glide_erotb>
1.06226459410414

> <r_i_glide_esite>
-0.101515927172121

> <r_i_glide_emodel>
-77.5467224969471

> <r_i_glide_energy>
-62.9655141830444

> <r_i_glide_einternal>
17.1061096191406

> <i_i_glide_confnum>
3

> <i_i_glide_posenum>
77

> <r_i_glide_eff_state_penalty>
0

> <s_user_duplicate_titles>
CHEMBL1952_lig113

> <i_f3d_flags>
0

> <s_m_subgroup_title>
dock_pv

> <s_m_subgroupid>
dock_pv

> <b_m_subgroup_collapsed>
1

$$$$
CHEMBL1952_lig406
                    3D
 Schrodinger Suite 2021-1.
 40 42  0  0  1  0            999 V2000
   15.3949   15.9188   30.1187 C   0  0  0  0  0  0
   15.4120   16.1027   31.6314 C   0  0  0  0  0  0
   14.4872   16.7291   29.4224 N   0  0  0  0  0  0
   13.6570   17.7236   31.3882 N   0  0  0  0  0  0
   14.5100   16.9968   32.2213 C   0  0  0  0  0  0
   13.7147   17.5530   30.0205 C   0  0  0  0  0  0
   17.2642   13.5073   34.8996 N   0  0  0  0  0  0
   18.8388   11.5598   34.9742 C   0  0  0  0  0  0
   19.3341   10.6298   35.5902 C   0  0  0  0  0  0
   16.3359   15.4150   32.4351 C   0  0  0  0  0  0
   16.1654   15.1173   29.5964 O   0  0  0  0  0  0
   17.4165   14.9573   34.6996 C   0  0  0  0  0  0
   16.3333   15.6020   33.8236 C   0  0  0  0  0  0
   14.4884   17.1759   33.5974 C   0  0  0  0  0  0
   16.1675   12.9960   35.6635 C   0  0  0  0  0  0
   18.2406   12.6571   34.1859 C   0  0  0  0  0  0
   15.3917   16.4712   34.3908 C   0  0  0  0  0  0
   12.7943   18.4176   29.1922 C   0  0  0  0  0  0
   15.7774   11.6475   35.5909 C   0  0  0  0  0  0
   15.4355   13.8294   36.5272 C   0  0  0  0  0  0
   14.3596   13.3502   37.2681 C   0  0  0  0  0  0
   14.7108   11.1554   36.3398 C   0  0  0  0  0  0
   14.0007   12.0113   37.1729 C   0  0  0  0  0  0
   19.7878    9.8282   36.1225 H   0  0  0  0  0  0
   17.0647   14.7473   31.9924 H   0  0  0  0  0  0
   13.0306   18.4036   31.7862 H   0  0  0  0  0  0
   17.4858   15.4278   35.6782 H   0  0  0  0  0  0
   18.3749   15.1822   34.2283 H   0  0  0  0  0  0
   13.7961   17.8717   34.0496 H   0  0  0  0  0  0
   17.7921   12.2290   33.2935 H   0  0  0  0  0  0
   19.0902   13.2413   33.8296 H   0  0  0  0  0  0
   15.3916   16.6442   35.4558 H   0  0  0  0  0  0
   12.9539   19.4720   29.4116 H   0  0  0  0  0  0
   12.9629   18.2801   28.1234 H   0  0  0  0  0  0
   11.7492   18.1870   29.3977 H   0  0  0  0  0  0
   16.2790   10.9584   34.9320 H   0  0  0  0  0  0
   15.6994   14.8629   36.6662 H   0  0  0  0  0  0
   13.8166   14.0158   37.9226 H   0  0  0  0  0  0
   14.4271   10.1167   36.2597 H   0  0  0  0  0  0
   13.1676   11.6346   37.7480 H   0  0  0  0  0  0
  1 11  2  0  0  0
  1  2  1  0  0  0
  1  3  1  0  0  0
  2 10  1  0  0  0
  2  5  2  0  0  0
  3  6  2  0  0  0
  4  5  1  0  0  0
  4 26  1  0  0  0
  4  6  1  0  0  0
  5 14  1  0  0  0
  6 18  1  0  0  0
  7 12  1  0  0  0
  7 15  1  0  0  0
  7 16  1  0  0  0
  8 16  1  0  0  0
  8  9  3  0  0  0
  9 24  1  0  0  0
 10 25  1  0  0  0
 10 13  2  0  0  0
 12 27  1  0  0  0
 12 28  1  0  0  0
 12 13  1  0  0  0
 13 17  1  0  0  0
 14 17  2  0  0  0
 14 29  1  0  0  0
 15 19  2  0  0  0
 15 20  1  0  0  0
 16 30  1  0  0  0
 16 31  1  0  0  0
 17 32  1  0  0  0
 18 33  1  0  0  0
 18 34  1  0  0  0
 18 35  1  0  0  0
 19 22  1  0  0  0
 19 36  1  0  0  0
 20 21  2  0  0  0
 20 37  1  0  0  0
 21 23  1  0  0  0
 21 38  1  0  0  0
 22 23  2  0  0  0
 22 39  1  0  0  0
 23 40  1  0  0  0
M  END
> <s_m_entry_id>
41351

> <s_m_entry_name>
dock_pv.468

> <s_m_Source_Path>
/home/csk/Desktop/cluster/DUD-E-result/tysy

> <s_m_Source_File>
dock_pv.maegz

> <i_m_Source_File_Index>
468

> <chembl_id>
CHEMBL57333

> <chembl_pref_name>
None

> <i_lp_mmshare_version>
53161

> <r_lp_tautomer_probability>
0.116051

> <s_lp_Force_Field>
OPLS_2005

> <r_lp_Energy>
18.85676

> <b_lp_Chiralities_Consistent>
1

> <s_lp_Variant>
CHEMBL1952_lig406-2

> <s_i_glide_gridfile>
glide-grid_1syn

> <i_i_glide_lignum>
797

> <i_i_glide_rotatable_bonds>
5

> <r_i_docking_score>
-7.09120819358872

> <r_i_glide_ligand_efficiency>
-0.308313399721249

> <r_i_glide_ligand_efficiency_sa>
-0.876802295996633

> <r_i_glide_ligand_efficiency_ln>
-1.71471844073067

> <r_i_glide_gscore>
-7.09120819358872

> <r_i_glide_lipo>
-3.61658191397249

> <r_i_glide_hbond>
0

> <r_i_glide_metal>
0

> <r_i_glide_rewards>
-1.9350412378087

> <r_i_glide_evdw>
-44.9970436096191

> <r_i_glide_ecoul>
-1.93908631801605

> <r_i_glide_erotb>
1.00113008637583

> <r_i_glide_esite>
0

> <r_i_glide_emodel>
-66.124320944789

> <r_i_glide_energy>
-46.9361299276352

> <r_i_glide_einternal>
1.96876811981201

> <i_i_glide_confnum>
4

> <i_i_glide_posenum>
188

> <r_i_glide_eff_state_penalty>
0

> <s_user_duplicate_titles>
CHEMBL1952_lig406,CHEMBL1952_lig406

> <i_f3d_flags>
0

> <s_m_subgroup_title>
dock_pv

> <s_m_subgroupid>
dock_pv

> <b_m_subgroup_collapsed>
1

$$$$
CHEMBL1952_lig54
                    3D
 Schrodinger Suite 2021-1.
 26 28  0  0  1  0            999 V2000
   14.2987   17.7861   32.2742 C   0  0  0  0  0  0
   14.9931   16.6917   31.6107 C   0  0  0  0  0  0
   13.3779   18.5409   31.6302 N   0  0  0  0  0  0
   13.6782   17.2620   29.6127 N   0  0  0  0  0  0
   14.6047   16.4909   30.2412 C   0  0  0  0  0  0
   13.1269   18.2537   30.3358 C   0  0  0  0  0  0
   16.0099   15.8279   32.1586 C   0  0  0  0  0  0
   14.5780   18.1058   33.5729 O   0  0  0  0  0  0
   15.1887   15.4764   29.4643 C   0  0  0  0  0  0
   16.6099   14.8264   31.3196 C   0  0  0  0  0  0
   16.1721   14.6629   29.9919 C   0  0  0  0  0  0
   12.1889   19.1804   29.5891 C   0  0  0  0  0  0
   16.4908   15.8963   33.5076 C   0  0  0  0  0  0
   17.6382   13.9877   31.8206 C   0  0  0  0  0  0
   17.4989   15.0520   33.9717 C   0  0  0  0  0  0
   18.0727   14.1092   33.1318 C   0  0  0  0  0  0
   14.0417   18.8537   33.8536 H   0  0  0  0  0  0
   14.8709   15.3415   28.4394 H   0  0  0  0  0  0
   16.6022   13.8884   29.3735 H   0  0  0  0  0  0
   11.7939   19.9735   30.2267 H   0  0  0  0  0  0
   11.3409   18.6228   29.1910 H   0  0  0  0  0  0
   12.7010   19.6413   28.7430 H   0  0  0  0  0  0
   16.0999   16.5850   34.2302 H   0  0  0  0  0  0
   18.0883   13.2402   31.1789 H   0  0  0  0  0  0
   17.8410   15.1281   34.9949 H   0  0  0  0  0  0
   18.8583   13.4599   33.4956 H   0  0  0  0  0  0
  1  2  1  0  0  0
  1  3  2  0  0  0
  1  8  1  0  0  0
  2  5  2  0  0  0
  2  7  1  0  0  0
  3  6  1  0  0  0
  4  6  2  0  0  0
  4  5  1  0  0  0
  5  9  1  0  0  0
  6 12  1  0  0  0
  7 10  2  0  0  0
  7 13  1  0  0  0
  8 17  1  0  0  0
  9 11  2  0  0  0
  9 18  1  0  0  0
 10 11  1  0  0  0
 10 14  1  0  0  0
 11 19  1  0  0  0
 12 20  1  0  0  0
 12 21  1  0  0  0
 12 22  1  0  0  0
 13 15  2  0  0  0
 13 23  1  0  0  0
 14 16  2  0  0  0
 14 24  1  0  0  0
 15 16  1  0  0  0
 15 25  1  0  0  0
 16 26  1  0  0  0
M  END
> <s_m_entry_id>
41352

> <s_m_entry_name>
dock_pv.469

> <s_m_Source_Path>
/home/csk/Desktop/cluster/DUD-E-result/tysy

> <s_m_Source_File>
dock_pv.maegz

> <i_m_Source_File_Index>
469

> <chembl_id>
CHEMBL418894

> <chembl_pref_name>
None

> <i_lp_mmshare_version>
53161

> <r_lp_tautomer_probability>
1

> <s_lp_Force_Field>
OPLS_2005

> <r_lp_Energy>
14.735792

> <b_lp_Chiralities_Consistent>
1

> <s_lp_Variant>
CHEMBL1952_lig54-1

> <s_i_glide_gridfile>
glide-grid_1syn

> <i_i_glide_lignum>
75

> <i_i_glide_rotatable_bonds>
1

> <r_i_docking_score>
-7.0898486112751

> <r_i_glide_ligand_efficiency>
-0.443115538204694

> <r_i_glide_ligand_efficiency_sa>
-1.11658118720724

> <r_i_glide_ligand_efficiency_ln>
-1.87930599735925

> <r_i_glide_gscore>
-7.0898486112751

> <r_i_glide_lipo>
-2.5797084039024

> <r_i_glide_hbond>
0

> <r_i_glide_metal>
0

> <r_i_glide_rewards>
-2.44562858637431

> <r_i_glide_evdw>
-33.9043807983398

> <r_i_glide_ecoul>
-2.4619505405426

> <r_i_glide_erotb>
0

> <r_i_glide_esite>
0

> <r_i_glide_emodel>
-52.1108309646866

> <r_i_glide_energy>
-36.3663313388824

> <r_i_glide_einternal>
0.911172926425934

> <i_i_glide_confnum>
1

> <i_i_glide_posenum>
17

> <r_i_glide_eff_state_penalty>
0

> <s_user_duplicate_titles>
CHEMBL1952_lig54

> <i_f3d_flags>
0

> <s_m_subgroup_title>
dock_pv

> <s_m_subgroupid>
dock_pv

> <b_m_subgroup_collapsed>
1

$$$$
CHEMBL1952_lig102
                    3D
 Schrodinger Suite 2021-1.
 52 54  0  0  1  0            999 V2000
   15.3916   16.4328   30.6048 N   0  0  0  0  0  0
   16.2591   15.6063   33.9917 C   0  0  0  0  0  0
   16.8126   15.7632   32.5919 C   0  0  2  0  0  0
   15.7717   16.7263   31.9717 C   0  0  2  0  0  0
   17.1049   14.4542   31.7872 C   0  0  0  0  0  0
   16.5919   14.3803   30.4938 N   0  0  0  0  0  0
   15.8353   15.2552   29.9701 C   0  0  0  0  0  0
   14.6234   16.6290   32.8447 N   0  0  0  0  0  0
   15.0012   16.0845   34.0445 C   0  0  0  0  0  0
   14.5413    9.8921   37.2642 C   0  0  0  0  0  0
   14.9908    8.7039   36.8099 N   0  0  0  0  0  0
   17.2699   14.9849   35.3321 S   0  0  0  0  0  0
   12.9847    7.2370   36.5068 C   0  0  0  0  0  0
   14.4147    7.3722   37.0914 C   0  0  2  0  0  0
   17.7833   13.5889   32.3364 O   0  0  0  0  0  0
   15.2197   11.1421   36.7357 C   0  0  0  0  0  0
   15.3705    4.6015   38.8189 C   0  0  0  0  0  0
   13.6153    9.9812   38.0737 O   0  0  0  0  0  0
   12.0137    6.8566   37.1247 O   0  0  0  0  0  0
   15.3918   15.0281   28.6606 N   0  0  0  0  0  0
   16.1920    4.3852   39.7057 O   0  0  0  0  0  0
   14.5186    7.0199   38.6072 C   0  0  0  0  0  0
   16.4324   13.5045   35.8268 C   0  0  0  0  0  0
   14.7845   12.3948   37.1911 C   0  0  0  0  0  0
   16.2738   11.0953   35.8049 C   0  0  0  0  0  0
   14.1929    5.5549   38.9952 C   0  0  0  0  0  0
   12.9920    7.5827   35.1910 O   0  0  0  0  0  0
   15.4089    4.0087   37.5910 O   0  0  0  0  0  0
   16.8750   12.2707   35.3542 C   0  0  0  0  0  0
   15.3926   13.5644   36.7516 C   0  0  0  0  0  0
   14.0447   16.2819   35.1912 C   0  0  0  0  0  0
   17.7921   16.2347   32.6274 H   0  0  0  0  0  0
   16.1447   17.7480   32.0352 H   0  0  0  0  0  0
   14.4262   15.2354   28.4625 H   0  0  0  0  0  0
   14.2147   17.5505   32.9040 H   0  0  0  0  0  0
   15.7053    8.7193   36.1000 H   0  0  0  0  0  0
   15.0351    6.6652   36.5401 H   0  0  0  0  0  0
   15.6369   14.1346   28.2589 H   0  0  0  0  0  0
   14.9608   17.1569   30.0503 H   0  0  0  0  0  0
   13.8615    7.6729   39.1828 H   0  0  0  0  0  0
   15.5219    7.2612   38.9619 H   0  0  0  0  0  0
   13.9859   12.4751   37.9150 H   0  0  0  0  0  0
   16.6512   10.1620   35.4153 H   0  0  0  0  0  0
   13.9413    5.5359   40.0565 H   0  0  0  0  0  0
   13.3120    5.1651   38.4863 H   0  0  0  0  0  0
   12.1296    7.4287   34.7611 H   0  0  0  0  0  0
   14.6691    4.2113   37.0080 H   0  0  0  0  0  0
   17.6922   12.2233   34.6475 H   0  0  0  0  0  0
   15.0822   14.5054   37.1744 H   0  0  0  0  0  0
   13.2881   15.4975   35.1954 H   0  0  0  0  0  0
   14.5921   16.2625   36.1275 H   0  0  0  0  0  0
   13.5457   17.2502   35.1292 H   0  0  0  0  0  0
  1  4  1  0  0  0
  1 39  1  0  0  0
  1  7  1  0  0  0
  2  3  1  0  0  0
  2 12  1  0  0  0
  2  9  2  0  0  0
  3  4  1  0  0  0
  3 32  1  0  0  0
  3  5  1  0  0  0
  4  8  1  0  0  0
  4 33  1  0  0  0
  5  6  1  0  0  0
  5 15  2  0  0  0
  6  7  2  0  0  0
  7 20  1  0  0  0
  8  9  1  0  0  0
  8 35  1  0  0  0
  9 31  1  0  0  0
 10 16  1  0  0  0
 10 11  1  0  0  0
 10 18  2  0  0  0
 11 14  1  0  0  0
 11 36  1  0  0  0
 12 23  1  0  0  0
 13 14  1  0  0  0
 13 19  2  0  0  0
 13 27  1  0  0  0
 14 22  1  0  0  0
 14 37  1  0  0  0
 16 24  1  0  0  0
 16 25  2  0  0  0
 17 26  1  0  0  0
 17 21  2  0  0  0
 17 28  1  0  0  0
 20 38  1  0  0  0
 20 34  1  0  0  0
 22 26  1  0  0  0
 22 40  1  0  0  0
 22 41  1  0  0  0
 23 29  2  0  0  0
 23 30  1  0  0  0
 24 30  2  0  0  0
 24 42  1  0  0  0
 25 29  1  0  0  0
 25 43  1  0  0  0
 26 44  1  0  0  0
 26 45  1  0  0  0
 27 46  1  0  0  0
 28 47  1  0  0  0
 29 48  1  0  0  0
 30 49  1  0  0  0
 31 50  1  0  0  0
 31 51  1  0  0  0
 31 52  1  0  0  0
M  END
> <s_m_entry_id>
41353

> <s_m_entry_name>
dock_pv.470

> <s_m_Source_Path>
/home/csk/Desktop/cluster/DUD-E-result/tysy

> <s_m_Source_File>
dock_pv.maegz

> <i_m_Source_File_Index>
470

> <chembl_id>
CHEMBL336487

> <chembl_pref_name>
None

> <i_lp_mmshare_version>
53161

> <r_lp_tautomer_probability>
0.615378461538462

> <s_lp_Force_Field>
OPLS_2005

> <r_lp_Energy>
21.382377

> <b_lp_Chiralities_Consistent>
1

> <s_lp_Variant>
CHEMBL1952_lig102-7

> <s_i_glide_gridfile>
glide-grid_1syn

> <i_i_glide_lignum>
196

> <i_i_glide_rotatable_bonds>
11

> <r_i_docking_score>
-7.08965052106402

> <r_i_glide_ligand_efficiency>
-0.228698403905291

> <r_i_glide_ligand_efficiency_sa>
-0.718428740438515

> <r_i_glide_ligand_efficiency_ln>
-1.59893346419506

> <r_i_glide_gscore>
-7.08965052106402

> <r_i_glide_lipo>
-2.91030282041026

> <r_i_glide_hbond>
0

> <r_i_glide_metal>
0

> <r_i_glide_rewards>
-1.15984937978813

> <r_i_glide_evdw>
-47.2055168151855

> <r_i_glide_ecoul>
-10.3679170608521

> <r_i_glide_erotb>
0.900101540785158

> <r_i_glide_esite>
-0.00413646176370796

> <r_i_glide_emodel>
-80.0844051135927

> <r_i_glide_energy>
-57.5734338760376

> <r_i_glide_einternal>
6.18439483642578

> <i_i_glide_confnum>
121

> <i_i_glide_posenum>
155

> <r_i_glide_eff_state_penalty>
0

> <s_user_duplicate_titles>
CHEMBL1952_lig102

> <i_f3d_flags>
0

> <s_m_subgroup_title>
dock_pv

> <s_m_subgroupid>
dock_pv

> <b_m_subgroup_collapsed>
1

$$$$
CHEMBL1952_lig32
                    3D
 Schrodinger Suite 2021-1.
 25 27  0  0  1  0            999 V2000
   15.9665   16.2477   33.1107 C   0  0  0  0  0  0
   15.5349   16.2265   31.7290 C   0  0  0  0  0  0
   16.9912   15.4809   33.5570 N   0  0  0  0  0  0
   17.5628   14.6327   32.6846 C   0  0  0  0  0  0
   17.2096   14.4583   31.4007 N   0  0  0  0  0  0
   16.2047   15.2414   30.9283 C   0  0  0  0  0  0
   14.5432   17.0645   31.1018 C   0  0  0  0  0  0
   15.2853   17.0197   34.0057 O   0  0  0  0  0  0
   14.2031   16.8230   29.7290 C   0  0  0  0  0  0
   13.8850   18.1770   31.7338 C   0  0  0  0  0  0
   15.8373   15.0342   29.5912 C   0  0  0  0  0  0
   18.6015   13.8483   33.1576 N   0  0  0  0  0  0
   14.8514   15.8028   29.0080 C   0  0  0  0  0  0
   13.2299   17.6196   29.0804 C   0  0  0  0  0  0
   12.9317   18.9384   31.0611 C   0  0  0  0  0  0
   12.5917   18.6502   29.7510 C   0  0  0  0  0  0
   12.0439   20.5868   31.9905 I   0  0  0  0  0  0
   14.4336   17.2903   33.6642 H   0  0  0  0  0  0
   14.1324   18.5280   32.7180 H   0  0  0  0  0  0
   16.3364   14.2675   29.0152 H   0  0  0  0  0  0
   19.1058   13.2476   32.5119 H   0  0  0  0  0  0
   18.9284   13.9973   34.0975 H   0  0  0  0  0  0
   14.5920   15.6319   27.9728 H   0  0  0  0  0  0
   12.9917   17.4301   28.0432 H   0  0  0  0  0  0
   11.8502   19.2524   29.2428 H   0  0  0  0  0  0
  1  2  1  0  0  0
  1  3  2  0  0  0
  1  8  1  0  0  0
  2  6  2  0  0  0
  2  7  1  0  0  0
  3  4  1  0  0  0
  4  5  2  0  0  0
  4 12  1  0  0  0
  5  6  1  0  0  0
  6 11  1  0  0  0
  7  9  2  0  0  0
  7 10  1  0  0  0
  8 18  1  0  0  0
  9 13  1  0  0  0
  9 14  1  0  0  0
 10 15  2  0  0  0
 10 19  1  0  0  0
 11 13  2  0  0  0
 11 20  1  0  0  0
 12 21  1  0  0  0
 12 22  1  0  0  0
 13 23  1  0  0  0
 14 16  2  0  0  0
 14 24  1  0  0  0
 15 16  1  0  0  0
 15 17  1  0  0  0
 16 25  1  0  0  0
M  END
> <s_m_entry_id>
41355

> <s_m_entry_name>
dock_pv.472

> <s_m_Source_Path>
/home/csk/Desktop/cluster/DUD-E-result/tysy

> <s_m_Source_File>
dock_pv.maegz

> <i_m_Source_File_Index>
472

> <chembl_id>
CHEMBL306597

> <chembl_pref_name>
None

> <i_lp_mmshare_version>
53161

> <r_lp_tautomer_probability>
1

> <s_lp_Force_Field>
OPLS_2005

> <r_lp_Energy>
12.997109

> <b_lp_Chiralities_Consistent>
1

> <s_lp_Variant>
CHEMBL1952_lig32-1

> <s_i_glide_gridfile>
glide-grid_1syn

> <i_i_glide_lignum>
41

> <i_i_glide_rotatable_bonds>
1

> <r_i_docking_score>
-7.08068967066159

> <r_i_glide_ligand_efficiency>
-0.416511157097741

> <r_i_glide_ligand_efficiency_sa>
-1.07096746953775

> <r_i_glide_ligand_efficiency_ln>
-1.84719425586914

> <r_i_glide_gscore>
-7.08068967066159

> <r_i_glide_lipo>
-3.22436639754563

> <r_i_glide_hbond>
-0.0526275827768833

> <r_i_glide_metal>
0

> <r_i_glide_rewards>
-1.44243997874635

> <r_i_glide_evdw>
-38.0123176574707

> <r_i_glide_ecoul>
-2.67599821090698

> <r_i_glide_erotb>
0

> <r_i_glide_esite>
-0.0592400970831451

> <r_i_glide_emodel>
-58.7676585639174

> <r_i_glide_energy>
-40.6883158683777

> <r_i_glide_einternal>
0.000196790511836298

> <i_i_glide_confnum>
1

> <i_i_glide_posenum>
362

> <r_i_glide_eff_state_penalty>
0

> <s_user_duplicate_titles>
CHEMBL1952_lig32

> <i_f3d_flags>
0

> <s_m_subgroup_title>
dock_pv

> <s_m_subgroupid>
dock_pv

> <b_m_subgroup_collapsed>
1

$$$$
CHEMBL1952_lig93
                    3D
 Schrodinger Suite 2021-1.
 56 58  0  0  1  0            999 V2000
   13.2605   18.4079   31.6663 N   0  0  0  0  0  0
   14.9992   16.7352   31.8364 C   0  0  0  0  0  0
   13.8667   17.1337   29.7109 N   0  0  0  0  0  0
   14.1863   17.7581   32.4037 C   0  0  0  0  0  0
   14.7926   16.4648   30.4516 C   0  0  0  0  0  0
   13.1485   18.0663   30.3681 C   0  0  0  0  0  0
   15.9389   16.0371   32.5409 N   0  0  0  0  0  0
   14.2509   11.8643   37.6577 C   0  0  0  0  0  0
   15.5241   15.5196   29.7964 N   0  0  0  0  0  0
   13.3831   12.6227   38.3563 N   0  0  0  0  0  0
   16.6567   15.0823   31.8789 C   0  0  0  0  0  0
   11.1051   13.0277   39.2718 C   0  0  0  0  0  0
   17.7970   14.6060   34.0732 N   0  0  0  0  0  0
   20.1851   14.6281   34.6628 C   0  0  0  0  0  0
   12.3622   12.1278   39.2914 C   0  0  2  0  0  0
   21.2328   14.0082   34.7516 C   0  0  0  0  0  0
   15.2083   12.5959   36.7350 C   0  0  0  0  0  0
   17.7080   14.2604   32.6454 C   0  0  0  0  0  0
   14.3774   18.0714   33.7210 O   0  0  0  0  0  0
   13.8401   13.0277   42.8522 C   0  0  0  0  0  0
   16.9817   13.9183   34.9919 C   0  0  0  0  0  0
   14.2790   10.6368   37.7540 O   0  0  0  0  0  0
   10.5915   13.4917   40.2697 O   0  0  0  0  0  0
   12.1920   18.7342   29.6303 N   0  0  0  0  0  0
   16.4474   14.8390   30.5197 C   0  0  0  0  0  0
   13.3905   13.8283   43.6713 O   0  0  0  0  0  0
   15.1754   13.9926   36.6005 C   0  0  0  0  0  0
   16.1555   11.8748   35.9912 C   0  0  0  0  0  0
   17.0349   12.5308   35.1288 C   0  0  0  0  0  0
   16.0551   14.6404   35.7415 C   0  0  0  0  0  0
   12.9677   11.9112   40.7106 C   0  0  0  0  0  0
   13.6307   13.1552   41.3469 C   0  0  0  0  0  0
   18.9204   15.3909   34.5826 C   0  0  0  0  0  0
   10.6585   13.1971   37.9950 O   0  0  0  0  0  0
   14.5897   11.9408   43.1909 O   0  0  0  0  0  0
   13.4253   13.6236   38.2444 H   0  0  0  0  0  0
   12.0197   11.1522   38.9361 H   0  0  0  0  0  0
   22.1289   13.4317   34.7917 H   0  0  0  0  0  0
   17.4790   13.2013   32.5220 H   0  0  0  0  0  0
   18.6777   14.4258   32.1709 H   0  0  0  0  0  0
   13.7920   18.7931   33.9716 H   0  0  0  0  0  0
   12.0683   18.4799   28.6659 H   0  0  0  0  0  0
   11.5471   19.3565   30.0958 H   0  0  0  0  0  0
   17.0111   14.0832   29.9912 H   0  0  0  0  0  0
   14.4777   14.6090   37.1487 H   0  0  0  0  0  0
   16.2168   10.7989   36.0702 H   0  0  0  0  0  0
   17.7534   11.9580   34.5619 H   0  0  0  0  0  0
   15.9903   15.7117   35.6338 H   0  0  0  0  0  0
   12.1999   11.5125   41.3749 H   0  0  0  0  0  0
   13.7142   11.1168   40.6497 H   0  0  0  0  0  0
   14.5906   13.3446   40.8775 H   0  0  0  0  0  0
   13.0220   14.0425   41.1763 H   0  0  0  0  0  0
   19.0876   16.2349   33.9131 H   0  0  0  0  0  0
   18.6845   15.8274   35.5528 H   0  0  0  0  0  0
   11.2004   12.7430   37.3459 H   0  0  0  0  0  0
   14.7428   11.8767   44.1469 H   0  0  0  0  0  0
  1  4  2  0  0  0
  1  6  1  0  0  0
  2  4  1  0  0  0
  2  7  2  0  0  0
  2  5  1  0  0  0
  3  6  2  0  0  0
  3  5  1  0  0  0
  4 19  1  0  0  0
  5  9  2  0  0  0
  6 24  1  0  0  0
  7 11  1  0  0  0
  8 17  1  0  0  0
  8 10  1  0  0  0
  8 22  2  0  0  0
  9 25  1  0  0  0
 10 15  1  0  0  0
 10 36  1  0  0  0
 11 18  1  0  0  0
 11 25  2  0  0  0
 12 15  1  0  0  0
 12 23  2  0  0  0
 12 34  1  0  0  0
 13 18  1  0  0  0
 13 21  1  0  0  0
 13 33  1  0  0  0
 14 33  1  0  0  0
 14 16  3  0  0  0
 15 31  1  0  0  0
 15 37  1  0  0  0
 16 38  1  0  0  0
 17 27  2  0  0  0
 17 28  1  0  0  0
 18 39  1  0  0  0
 18 40  1  0  0  0
 19 41  1  0  0  0
 20 32  1  0  0  0
 20 26  2  0  0  0
 20 35  1  0  0  0
 21 29  1  0  0  0
 21 30  2  0  0  0
 24 42  1  0  0  0
 24 43  1  0  0  0
 25 44  1  0  0  0
 27 30  1  0  0  0
 27 45  1  0  0  0
 28 29  2  0  0  0
 28 46  1  0  0  0
 29 47  1  0  0  0
 30 48  1  0  0  0
 31 32  1  0  0  0
 31 49  1  0  0  0
 31 50  1  0  0  0
 32 51  1  0  0  0
 32 52  1  0  0  0
 33 53  1  0  0  0
 33 54  1  0  0  0
 34 55  1  0  0  0
 35 56  1  0  0  0
M  END
> <s_m_entry_id>
41356

> <s_m_entry_name>
dock_pv.473

> <s_m_Source_Path>
/home/csk/Desktop/cluster/DUD-E-result/tysy

> <s_m_Source_File>
dock_pv.maegz

> <i_m_Source_File_Index>
473

> <chembl_id>
CHEMBL350921

> <chembl_pref_name>
None

> <i_lp_mmshare_version>
53161

> <r_lp_tautomer_probability>
1

> <s_lp_Force_Field>
OPLS_2005

> <r_lp_Energy>
25.153336

> <b_lp_Chiralities_Consistent>
1

> <s_lp_Variant>
CHEMBL1952_lig93-1

> <s_i_glide_gridfile>
glide-grid_1syn

> <i_i_glide_lignum>
164

> <i_i_glide_rotatable_bonds>
15

> <r_i_docking_score>
-7.07932085548918

> <r_i_glide_ligand_efficiency>
-0.202266310156834

> <r_i_glide_ligand_efficiency_sa>
-0.661626512056071

> <r_i_glide_ligand_efficiency_ln>
-1.55406804484102

> <r_i_glide_gscore>
-7.07932085548918

> <r_i_glide_lipo>
-2.80505353235638

> <r_i_glide_hbond>
-0.183614403711038

> <r_i_glide_metal>
0

> <r_i_glide_rewards>
-0.155297338328767

> <r_i_glide_evdw>
-59.9275703430176

> <r_i_glide_ecoul>
-12.9710884094238

> <r_i_glide_erotb>
1.05826781581769

> <r_i_glide_esite>
-0.0515816183462358

> <r_i_glide_emodel>
-93.34154927638

> <r_i_glide_energy>
-72.8986587524414

> <r_i_glide_einternal>
16.7799835205078

> <i_i_glide_confnum>
73

> <i_i_glide_posenum>
342

> <r_i_glide_eff_state_penalty>
0

> <s_user_duplicate_titles>
CHEMBL1952_lig93

> <i_f3d_flags>
0

> <s_m_subgroup_title>
dock_pv

> <s_m_subgroupid>
dock_pv

> <b_m_subgroup_collapsed>
1

$$$$
CHEMBL1952_lig271
                    3D
 Schrodinger Suite 2021-1.
 56 59  0  0  1  0            999 V2000
   13.2096   18.5427   31.8796 N   0  0  0  0  0  0
   13.2172   18.0369   30.7073 C   0  0  0  0  0  0
   14.0620   17.0224   30.2918 N   0  0  0  0  0  0
   14.1140   18.1369   32.8688 C   0  0  0  0  0  0
   12.2239   18.5545   29.6935 C   0  0  0  0  0  0
   14.2242   18.6264   33.9880 O   0  0  0  0  0  0
   15.0456   17.0014   32.4782 C   0  0  0  0  0  0
   14.9975   16.4848   31.1819 C   0  0  0  0  0  0
   15.8920   15.4979   30.7917 C   0  0  0  0  0  0
   16.8471   15.0289   31.6976 C   0  0  0  0  0  0
   16.8752   15.4971   33.0249 C   0  0  0  0  0  0
   15.9722   16.4986   33.3960 C   0  0  0  0  0  0
   18.1553   13.8279   31.0324 Br  0  0  0  0  0  0
   17.9229   15.0305   34.0476 C   0  0  0  0  0  0
   17.6835   13.6800   34.6032 N   0  0  0  0  0  0
   16.5283   13.4042   35.4011 C   0  0  0  0  0  0
   18.5184   12.6211   34.0106 C   0  0  0  0  0  0
   18.9918   11.5598   34.9160 C   0  0  0  0  0  0
   19.3939   10.6287   35.5910 C   0  0  0  0  0  0
   15.8386   14.4458   36.0326 C   0  0  0  0  0  0
   14.7012   14.2078   36.7942 C   0  0  0  0  0  0
   14.2296   12.9112   36.9855 C   0  0  0  0  0  0
   14.9017   11.8524   36.3719 C   0  0  0  0  0  0
   16.0260   12.1019   35.5910 C   0  0  0  0  0  0
   13.0273   12.6944   37.8642 C   0  0  0  0  0  0
   13.0226   11.5614   38.5864 N   0  0  0  0  0  0
   12.1570   13.5609   37.9705 O   0  0  0  0  0  0
   12.1395   11.3301   39.7274 C   0  0  0  0  0  0
   12.5861   12.1038   40.9628 C   0  0  0  0  0  0
   13.4513   11.4610   41.7912 N   0  0  0  0  0  0
   13.8998   12.1296   42.8824 C   0  0  0  0  0  0
   13.4976   13.4286   43.1964 C   0  0  0  0  0  0
   12.5913   14.0675   42.3477 C   0  0  0  0  0  0
   12.1211   13.4000   41.2157 C   0  0  0  0  0  0
   14.0210   16.6849   29.3447 H   0  0  0  0  0  0
   11.8086   19.5197   29.9904 H   0  0  0  0  0  0
   12.6848   18.6897   28.7146 H   0  0  0  0  0  0
   11.3872   17.8634   29.5897 H   0  0  0  0  0  0
   15.8813   15.1211   29.7813 H   0  0  0  0  0  0
   16.0063   16.9133   34.3912 H   0  0  0  0  0  0
   18.8932   15.0720   33.5495 H   0  0  0  0  0  0
   18.0225   15.7516   34.8589 H   0  0  0  0  0  0
   17.9665   12.1415   33.2073 H   0  0  0  0  0  0
   19.4249   13.0274   33.5596 H   0  0  0  0  0  0
   19.7593    9.8295   36.1898 H   0  0  0  0  0  0
   16.1892   15.4589   35.9748 H   0  0  0  0  0  0
   14.2006   15.0280   37.2798 H   0  0  0  0  0  0
   14.5520   10.8343   36.4754 H   0  0  0  0  0  0
   16.4687   11.2505   35.1035 H   0  0  0  0  0  0
   13.8032   10.9332   38.4781 H   0  0  0  0  0  0
   11.1089   11.5923   39.4794 H   0  0  0  0  0  0
   12.1333   10.2606   39.9452 H   0  0  0  0  0  0
   14.5926   11.5993   43.5204 H   0  0  0  0  0  0
   13.8797   13.9172   44.0812 H   0  0  0  0  0  0
   12.2438   15.0666   42.5666 H   0  0  0  0  0  0
   11.4333   13.8856   40.5374 H   0  0  0  0  0  0
  1  2  2  0  0  0
  1  4  1  0  0  0
  2  3  1  0  0  0
  2  5  1  0  0  0
  3  8  1  0  0  0
  3 35  1  0  0  0
  4  6  2  0  0  0
  4  7  1  0  0  0
  5 36  1  0  0  0
  5 37  1  0  0  0
  5 38  1  0  0  0
  7 12  1  0  0  0
  7  8  2  0  0  0
  8  9  1  0  0  0
  9 10  2  0  0  0
  9 39  1  0  0  0
 10 11  1  0  0  0
 10 13  1  0  0  0
 11 12  2  0  0  0
 11 14  1  0  0  0
 12 40  1  0  0  0
 14 15  1  0  0  0
 14 41  1  0  0  0
 14 42  1  0  0  0
 15 17  1  0  0  0
 15 16  1  0  0  0
 16 20  2  0  0  0
 16 24  1  0  0  0
 17 18  1  0  0  0
 17 43  1  0  0  0
 17 44  1  0  0  0
 18 19  3  0  0  0
 19 45  1  0  0  0
 20 21  1  0  0  0
 20 46  1  0  0  0
 21 22  2  0  0  0
 21 47  1  0  0  0
 22 23  1  0  0  0
 22 25  1  0  0  0
 23 24  2  0  0  0
 23 48  1  0  0  0
 24 49  1  0  0  0
 25 26  1  0  0  0
 25 27  2  0  0  0
 26 28  1  0  0  0
 26 50  1  0  0  0
 28 29  1  0  0  0
 28 51  1  0  0  0
 28 52  1  0  0  0
 29 30  2  0  0  0
 29 34  1  0  0  0
 30 31  1  0  0  0
 31 32  2  0  0  0
 31 53  1  0  0  0
 32 33  1  0  0  0
 32 54  1  0  0  0
 33 34  2  0  0  0
 33 55  1  0  0  0
 34 56  1  0  0  0
M  END
> <s_m_entry_id>
41357

> <s_m_entry_name>
dock_pv.474

> <s_m_Source_Path>
/home/csk/Desktop/cluster/DUD-E-result/tysy

> <s_m_Source_File>
dock_pv.maegz

> <i_m_Source_File_Index>
474

> <chembl_id>
CHEMBL1801872

> <chembl_pref_name>
None

> <i_lp_mmshare_version>
53161

> <r_lp_tautomer_probability>
0.116051

> <s_lp_Force_Field>
OPLS_2005

> <r_lp_Energy>
21.53994

> <b_lp_Chiralities_Consistent>
1

> <s_lp_Variant>
CHEMBL1952_lig271-2

> <s_i_glide_gridfile>
glide-grid_1syn

> <i_i_glide_lignum>
540

> <i_i_glide_rotatable_bonds>
9

> <r_i_docking_score>
-7.07581309231595

> <r_i_glide_ligand_efficiency>
-0.208112149773999

> <r_i_glide_ligand_efficiency_sa>
-0.674202575604579

> <r_i_glide_ligand_efficiency_ln>
-1.56324558192721

> <r_i_glide_gscore>
-7.07581309231595

> <r_i_glide_lipo>
-3.7154956648459

> <r_i_glide_hbond>
0

> <r_i_glide_metal>
0

> <r_i_glide_rewards>
-0.641319534825358

> <r_i_glide_evdw>
-62.8457527160645

> <r_i_glide_ecoul>
-1.27789545059204

> <r_i_glide_erotb>
0.615777662842674

> <r_i_glide_esite>
-0.000803602095335875

> <r_i_glide_emodel>
-88.1856366952158

> <r_i_glide_energy>
-64.1236481666565

> <r_i_glide_einternal>
4.41912984848022

> <i_i_glide_confnum>
9

> <i_i_glide_posenum>
312

> <r_i_glide_eff_state_penalty>
0

> <s_user_duplicate_titles>
CHEMBL1952_lig271

> <i_f3d_flags>
0

> <s_m_subgroup_title>
dock_pv

> <s_m_subgroupid>
dock_pv

> <b_m_subgroup_collapsed>
1

$$$$
CHEMBL1952_lig4
                    3D
 Schrodinger Suite 2021-1.
 45 47  0  0  1  0            999 V2000
   13.0753   19.0290   32.2437 C   0  0  0  0  0  0
   12.5703   18.7413   30.9793 C   0  0  0  0  0  0
   13.0620   17.6534   30.2685 C   0  0  0  0  0  0
   14.0821   16.8736   30.8098 C   0  0  0  0  0  0
   14.6450   17.1723   32.0622 C   0  0  0  0  0  0
   14.1062   18.2597   32.7875 C   0  0  0  0  0  0
   14.5525   18.6279   34.0305 O   0  0  0  0  0  0
   15.7972   16.3527   32.4831 C   0  0  0  0  0  0
   16.5658   16.5934   33.4847 N   0  0  0  0  0  0
   17.6219   15.8278   33.5717 N   0  0  0  0  0  0
   17.5977   14.7110   34.2123 C   0  0  0  0  0  0
   16.2688   14.2358   35.3523 S   0  0  0  0  0  0
   17.1027   12.6770   35.7485 C   0  0  2  0  0  0
   18.3207   12.7051   34.8420 C   0  0  0  0  0  0
   18.5553   13.7232   34.1486 N   0  0  0  0  0  0
   19.1776   11.6407   34.8111 O   0  0  0  0  0  0
   16.2259   11.4156   35.5587 C   0  0  0  0  0  0
   15.0941   11.2669   36.5815 C   0  0  0  0  0  0
   15.2132   10.4480   37.4932 O   0  0  0  0  0  0
   14.0292   12.0731   36.3920 N   0  0  0  0  0  0
   12.8230   12.1342   37.1096 C   0  0  0  0  0  0
   12.3297   11.0896   37.9074 C   0  0  0  0  0  0
   11.0999   11.2099   38.5651 C   0  0  0  0  0  0
   10.3591   12.3899   38.4182 C   0  0  0  0  0  0
   10.8396   13.4281   37.6213 C   0  0  0  0  0  0
   12.0642   13.2996   36.9672 C   0  0  0  0  0  0
   10.5936   10.0489   39.4189 C   0  0  0  0  0  0
    9.4130   10.3063   39.9847 F   0  0  0  0  0  0
   11.4707    9.7979   40.3911 F   0  0  0  0  0  0
   10.4645    8.9574   38.6651 F   0  0  0  0  0  0
   12.6747   19.8714   32.7906 H   0  0  0  0  0  0
   11.7923   19.3586   30.5540 H   0  0  0  0  0  0
   12.6622   17.4269   29.2908 H   0  0  0  0  0  0
   14.4536   16.0498   30.2152 H   0  0  0  0  0  0
   14.0216   19.3499   34.3915 H   0  0  0  0  0  0
   15.9947   15.5132   31.8161 H   0  0  0  0  0  0
   17.3920   12.7500   36.7909 H   0  0  0  0  0  0
   19.8905   11.8277   34.1802 H   0  0  0  0  0  0
   16.8377   10.5123   35.6081 H   0  0  0  0  0  0
   15.7915   11.4274   34.5679 H   0  0  0  0  0  0
   14.1385   12.7803   35.6800 H   0  0  0  0  0  0
   12.8792   10.1664   38.0112 H   0  0  0  0  0  0
    9.4035   12.5080   38.9085 H   0  0  0  0  0  0
   10.2592   14.3326   37.5059 H   0  0  0  0  0  0
   12.4172   14.1133   36.3490 H   0  0  0  0  0  0
  1  2  2  0  0  0
  1  6  1  0  0  0
  1 31  1  0  0  0
  2  3  1  0  0  0
  2 32  1  0  0  0
  3  4  2  0  0  0
  3 33  1  0  0  0
  4  5  1  0  0  0
  4 34  1  0  0  0
  5  6  2  0  0  0
  5  8  1  0  0  0
  6  7  1  0  0  0
  7 35  1  0  0  0
  8  9  2  0  0  0
  8 36  1  0  0  0
  9 10  1  0  0  0
 10 11  2  0  0  0
 11 12  1  0  0  0
 11 15  1  0  0  0
 12 13  1  0  0  0
 13 14  1  0  0  0
 13 17  1  0  0  0
 13 37  1  0  0  0
 14 15  2  0  0  0
 14 16  1  0  0  0
 16 38  1  0  0  0
 17 18  1  0  0  0
 17 39  1  0  0  0
 17 40  1  0  0  0
 18 19  2  0  0  0
 18 20  1  0  0  0
 20 21  1  0  0  0
 20 41  1  0  0  0
 21 22  2  0  0  0
 21 26  1  0  0  0
 22 23  1  0  0  0
 22 42  1  0  0  0
 23 24  2  0  0  0
 23 27  1  0  0  0
 24 25  1  0  0  0
 24 43  1  0  0  0
 25 26  2  0  0  0
 25 44  1  0  0  0
 26 45  1  0  0  0
 27 28  1  0  0  0
 27 29  1  0  0  0
 27 30  1  0  0  0
M  END
> <s_m_entry_id>
41358

> <s_m_entry_name>
dock_pv.475

> <s_m_Source_Path>
/home/csk/Desktop/cluster/DUD-E-result/tysy

> <s_m_Source_File>
dock_pv.maegz

> <i_m_Source_File_Index>
475

> <chembl_id>
CHEMBL2180553

> <chembl_pref_name>
None

> <i_lp_mmshare_version>
53161

> <r_lp_tautomer_probability>
1

> <s_lp_Force_Field>
OPLS_2005

> <r_lp_Energy>
30.344407

> <b_lp_Chiralities_Consistent>
1

> <s_lp_Variant>
CHEMBL1952_lig4-1

> <s_i_glide_gridfile>
glide-grid_1syn

> <i_i_glide_lignum>
4

> <i_i_glide_rotatable_bonds>
9

> <r_i_docking_score>
-7.07571483041859

> <r_i_glide_ligand_efficiency>
-0.235857161013953

> <r_i_glide_ligand_efficiency_sa>
-0.732863036633678

> <r_i_glide_ligand_efficiency_ln>
-1.60767950555909

> <r_i_glide_gscore>
-7.07571483041859

> <r_i_glide_lipo>
-2.40553570774114

> <r_i_glide_hbond>
-0.304

> <r_i_glide_metal>
0

> <r_i_glide_rewards>
-1.50353920085793

> <r_i_glide_evdw>
-46.7187232971191

> <r_i_glide_ecoul>
-7.52348566055298

> <r_i_glide_erotb>
0.627954657730627

> <r_i_glide_esite>
-0.02613556561125

> <r_i_glide_emodel>
-73.7321855142712

> <r_i_glide_energy>
-54.2422089576721

> <r_i_glide_einternal>
8.57994556427002

> <i_i_glide_confnum>
8

> <i_i_glide_posenum>
35

> <r_i_glide_eff_state_penalty>
0

> <s_user_duplicate_titles>
CHEMBL1952_lig4

> <i_f3d_flags>
0

> <s_m_subgroup_title>
dock_pv

> <s_m_subgroupid>
dock_pv

> <b_m_subgroup_collapsed>
1

$$$$
CHEMBL1952_lig224
                    3D
 Schrodinger Suite 2021-1.
 60 62  0  0  1  0            999 V2000
   12.9799   18.0343   31.3823 N   0  0  0  0  0  0
   13.1072   17.4282   30.2679 C   0  0  0  0  0  0
   14.1008   16.5153   29.9658 N   0  0  0  0  0  0
   13.8335   17.7878   32.4574 C   0  0  0  0  0  0
   13.6992   18.2378   33.5917 O   0  0  0  0  0  0
   14.9882   16.8460   32.1637 C   0  0  0  0  0  0
   15.0648   16.2001   30.9248 C   0  0  0  0  0  0
   16.0825   15.2884   30.6623 C   0  0  0  0  0  0
   17.0416   15.0303   31.6444 C   0  0  0  0  0  0
   16.9957   15.7147   32.8684 C   0  0  0  0  0  0
   15.9694   16.6218   33.1240 C   0  0  0  0  0  0
   18.0804   15.5633   33.9199 C   0  0  0  0  0  0
   18.3515   14.1716   34.3074 N   0  0  0  0  0  0
   17.3915   13.4079   35.0522 C   0  0  0  0  0  0
   17.5471   12.0129   35.1865 C   0  0  0  0  0  0
   16.6161   11.2229   35.8582 C   0  0  0  0  0  0
   15.4899   11.8019   36.4527 C   0  0  0  0  0  0
   15.3468   13.1859   36.3885 C   0  0  0  0  0  0
   16.2649   13.9743   35.7003 C   0  0  0  0  0  0
   14.4275   10.9718   37.1246 C   0  0  0  0  0  0
   13.7996   11.3871   38.0997 O   0  0  0  0  0  0
   14.1880    9.7958   36.5304 N   0  0  0  0  0  0
   13.1630    8.8099   36.8768 C   0  0  1  0  0  0
   11.7419    9.3483   36.5444 C   0  0  0  0  0  0
   13.4795    7.4979   36.1350 C   0  0  0  0  0  0
   12.7965    6.4552   36.6853 O   0  0  0  0  0  0
   14.2377    7.4281   35.1910 O   0  0  0  0  0  0
   11.5430    9.8309   35.0863 C   0  0  0  0  0  0
   10.1192   10.2957   34.7912 C   0  0  0  0  0  0
   10.0348   10.9348   33.5925 O   0  0  0  0  0  0
    9.1571   10.1112   35.5327 O   0  0  0  0  0  0
   12.1116   17.7226   29.1912 C   0  0  0  0  0  0
   15.9899   15.2930   35.6773 F   0  0  0  0  0  0
   19.4422   13.4694   33.6070 C   0  0  0  0  0  0
   20.4673   14.3567   32.8658 C   0  0  0  0  0  0
   14.1651   16.1022   29.0511 H   0  0  0  0  0  0
   16.1357   14.7816   29.7106 H   0  0  0  0  0  0
   17.8354   14.3273   31.4394 H   0  0  0  0  0  0
   15.9361   17.1504   34.0675 H   0  0  0  0  0  0
   17.8626   16.1541   34.7911 H   0  0  0  0  0  0
   18.9591   16.0818   33.5500 H   0  0  0  0  0  0
   18.3842   11.4973   34.7411 H   0  0  0  0  0  0
   16.7855   10.1566   35.8998 H   0  0  0  0  0  0
   14.4949   13.6697   36.8467 H   0  0  0  0  0  0
   14.7341    9.5498   35.7182 H   0  0  0  0  0  0
   13.2355    8.6097   37.9475 H   0  0  0  0  0  0
   11.5100   10.1738   37.2200 H   0  0  0  0  0  0
   10.9998    8.5822   36.7802 H   0  0  0  0  0  0
   12.9810    5.6362   36.2162 H   0  0  0  0  0  0
   11.7876    9.0379   34.3812 H   0  0  0  0  0  0
   12.2159   10.6593   34.8691 H   0  0  0  0  0  0
    9.1337   11.2026   33.3958 H   0  0  0  0  0  0
   11.2677   18.3052   29.5597 H   0  0  0  0  0  0
   12.5818   18.2814   28.3815 H   0  0  0  0  0  0
   11.7057   16.7959   28.7922 H   0  0  0  0  0  0
   19.9862   12.8810   34.3486 H   0  0  0  0  0  0
   19.0022   12.7578   32.9060 H   0  0  0  0  0  0
   21.2870   13.8277   32.3947 H   0  0  0  0  0  0
   20.0077   14.9326   32.0636 H   0  0  0  0  0  0
   20.9319   15.0279   33.5742 H   0  0  0  0  0  0
  1  2  2  0  0  0
  1  4  1  0  0  0
  2  3  1  0  0  0
  2 32  1  0  0  0
  3  7  1  0  0  0
  3 36  1  0  0  0
  4  5  2  0  0  0
  4  6  1  0  0  0
  6 11  1  0  0  0
  6  7  2  0  0  0
  7  8  1  0  0  0
  8  9  2  0  0  0
  8 37  1  0  0  0
  9 10  1  0  0  0
  9 38  1  0  0  0
 10 11  2  0  0  0
 10 12  1  0  0  0
 11 39  1  0  0  0
 12 13  1  0  0  0
 12 40  1  0  0  0
 12 41  1  0  0  0
 13 14  1  0  0  0
 13 34  1  0  0  0
 14 19  1  0  0  0
 14 15  2  0  0  0
 15 16  1  0  0  0
 15 42  1  0  0  0
 16 17  2  0  0  0
 16 43  1  0  0  0
 17 18  1  0  0  0
 17 20  1  0  0  0
 18 19  2  0  0  0
 18 44  1  0  0  0
 19 33  1  0  0  0
 20 21  2  0  0  0
 20 22  1  0  0  0
 22 23  1  0  0  0
 22 45  1  0  0  0
 23 24  1  0  0  0
 23 25  1  0  0  0
 23 46  1  0  0  0
 24 28  1  0  0  0
 24 47  1  0  0  0
 24 48  1  0  0  0
 25 26  1  0  0  0
 25 27  2  0  0  0
 26 49  1  0  0  0
 28 29  1  0  0  0
 28 50  1  0  0  0
 28 51  1  0  0  0
 29 30  1  0  0  0
 29 31  2  0  0  0
 30 52  1  0  0  0
 32 53  1  0  0  0
 32 54  1  0  0  0
 32 55  1  0  0  0
 34 35  1  0  0  0
 34 56  1  0  0  0
 34 57  1  0  0  0
 35 58  1  0  0  0
 35 59  1  0  0  0
 35 60  1  0  0  0
M  END
> <s_m_entry_id>
41360

> <s_m_entry_name>
dock_pv.477

> <s_m_Source_Path>
/home/csk/Desktop/cluster/DUD-E-result/tysy

> <s_m_Source_File>
dock_pv.maegz

> <i_m_Source_File_Index>
477

> <chembl_id>
CHEMBL105384

> <chembl_pref_name>
None

> <i_lp_mmshare_version>
53161

> <r_lp_tautomer_probability>
0.116051

> <s_lp_Force_Field>
OPLS_2005

> <r_lp_Energy>
22.6006

> <b_lp_Chiralities_Consistent>
1

> <s_lp_Variant>
CHEMBL1952_lig224-2

> <s_i_glide_gridfile>
glide-grid_1syn

> <i_i_glide_lignum>
445

> <i_i_glide_rotatable_bonds>
13

> <r_i_docking_score>
-7.0587162505331

> <r_i_glide_ligand_efficiency>
-0.201677607158089

> <r_i_glide_ligand_efficiency_sa>
-0.659700825512451

> <r_i_glide_ligand_efficiency_ln>
-1.54954487675859

> <r_i_glide_gscore>
-7.0587162505331

> <r_i_glide_lipo>
-3.63197186669878

> <r_i_glide_hbond>
-0.32

> <r_i_glide_metal>
0

> <r_i_glide_rewards>
-0.777453592459085

> <r_i_glide_evdw>
-53.2041320800781

> <r_i_glide_ecoul>
-3.56201601028442

> <r_i_glide_erotb>
0.865218214171338

> <r_i_glide_esite>
0

> <r_i_glide_emodel>
-73.1383799252066

> <r_i_glide_energy>
-56.7661480903625

> <r_i_glide_einternal>
16.7616863250732

> <i_i_glide_confnum>
68

> <i_i_glide_posenum>
273

> <r_i_glide_eff_state_penalty>
0

> <s_user_duplicate_titles>
CHEMBL1952_lig224,170906

> <i_f3d_flags>
0

> <s_m_subgroup_title>
dock_pv

> <s_m_subgroupid>
dock_pv

> <b_m_subgroup_collapsed>
1

$$$$
CHEMBL1952_lig482
                    3D
 Schrodinger Suite 2021-1.
 42 44  0  0  1  0            999 V2000
   15.9916   16.2005   33.8761 N   0  0  0  0  0  0
   15.7281   15.0816   34.6826 C   0  0  0  0  0  0
   14.5030   15.1640   35.2325 C   0  0  0  0  0  0
   13.6573   16.6287   34.7909 S   0  0  0  0  0  0
   15.1187   17.2801   34.0693 C   0  0  0  0  0  0
   16.9640   16.3123   32.7787 C   0  0  0  0  0  0
   16.7608   15.4185   31.5200 C   0  0  0  0  0  0
   15.5536   15.1660   30.9371 N   0  0  0  0  0  0
   17.7958   14.9624   31.0353 O   0  0  0  0  0  0
   14.2651   15.7451   31.3300 C   0  0  0  0  0  0
   14.0211   17.0007   30.4829 C   0  0  0  0  0  0
   14.0125   16.6263   29.0705 N   0  0  0  0  0  0
   15.1769   15.8305   28.6346 C   0  0  0  0  0  0
   15.5050   14.6322   29.5644 C   0  0  0  0  0  0
   16.6190   13.8757   34.9109 C   0  0  0  0  0  0
   16.2231   12.8849   35.8339 C   0  0  0  0  0  0
   16.9324   11.6969   35.9913 C   0  0  0  0  0  0
   18.0829   11.4756   35.2478 C   0  0  0  0  0  0
   18.5184   12.4389   34.3547 C   0  0  0  0  0  0
   17.8047   13.6199   34.1975 C   0  0  0  0  0  0
   15.2098   18.4883   33.7159 N   0  0  0  0  0  0
   13.8014   17.8063   28.2404 C   0  0  0  0  0  0
   18.9791   10.0154   35.4405 Cl  0  0  0  0  0  0
   14.0001   14.4534   35.8672 H   0  0  0  0  0  0
   17.9690   16.2282   33.1868 H   0  0  0  0  0  0
   16.9918   17.3238   32.3888 H   0  0  0  0  0  0
   14.1161   15.8279   32.3864 H   0  0  0  0  0  0
   13.4838   15.0281   31.0730 H   0  0  0  0  0  0
   13.0564   17.4370   30.7474 H   0  0  0  0  0  0
   14.7874   17.7536   30.6785 H   0  0  0  0  0  0
   15.0097   15.4563   27.6226 H   0  0  0  0  0  0
   16.0433   16.4933   28.6294 H   0  0  0  0  0  0
   14.6962   13.9031   29.4941 H   0  0  0  0  0  0
   16.4089   14.0990   29.2641 H   0  0  0  0  0  0
   15.3445   12.9975   36.4460 H   0  0  0  0  0  0
   16.5949   10.9563   36.7007 H   0  0  0  0  0  0
   19.3922   12.2617   33.7497 H   0  0  0  0  0  0
   18.2204   14.2741   33.4643 H   0  0  0  0  0  0
   16.0817   18.7120   33.2639 H   0  0  0  0  0  0
   13.7874   17.5311   27.1888 H   0  0  0  0  0  0
   12.8460   18.2786   28.4725 H   0  0  0  0  0  0
   14.5887   18.5465   28.3884 H   0  0  0  0  0  0
  1  2  1  0  0  0
  1  5  1  0  0  0
  1  6  1  0  0  0
  2  3  2  0  0  0
  2 15  1  0  0  0
  3  4  1  0  0  0
  3 24  1  0  0  0
  4  5  1  0  0  0
  5 21  2  0  0  0
  6  7  1  0  0  0
  6 25  1  0  0  0
  6 26  1  0  0  0
  7  8  1  0  0  0
  7  9  2  0  0  0
  8 10  1  0  0  0
  8 14  1  0  0  0
 10 11  1  0  0  0
 10 27  1  0  0  0
 10 28  1  0  0  0
 11 12  1  0  0  0
 11 29  1  0  0  0
 11 30  1  0  0  0
 12 13  1  0  0  0
 12 22  1  0  0  0
 13 14  1  0  0  0
 13 31  1  0  0  0
 13 32  1  0  0  0
 14 33  1  0  0  0
 14 34  1  0  0  0
 15 16  2  0  0  0
 15 20  1  0  0  0
 16 17  1  0  0  0
 16 35  1  0  0  0
 17 18  2  0  0  0
 17 36  1  0  0  0
 18 19  1  0  0  0
 18 23  1  0  0  0
 19 20  2  0  0  0
 19 37  1  0  0  0
 20 38  1  0  0  0
 21 39  1  0  0  0
 22 40  1  0  0  0
 22 41  1  0  0  0
 22 42  1  0  0  0
M  END
> <s_m_entry_id>
41362

> <s_m_entry_name>
dock_pv.479

> <s_m_Source_Path>
/home/csk/Desktop/cluster/DUD-E-result/tysy

> <s_m_Source_File>
dock_pv.maegz

> <i_m_Source_File_Index>
479

> <chembl_id>
CHEMBL2437298

> <chembl_pref_name>
None

> <i_lp_mmshare_version>
53161

> <r_lp_tautomer_probability>
1

> <s_lp_Force_Field>
OPLS_2005

> <r_lp_Energy>
41.231096

> <b_lp_Chiralities_Consistent>
1

> <s_lp_Variant>
CHEMBL1952_lig482-1

> <s_i_glide_gridfile>
glide-grid_1syn

> <i_i_glide_lignum>
912

> <i_i_glide_rotatable_bonds>
4

> <r_i_docking_score>
-7.04637943878081

> <r_i_glide_ligand_efficiency>
-0.306364323425253

> <r_i_glide_ligand_efficiency_sa>
-0.871259382283032

> <r_i_glide_ligand_efficiency_ln>
-1.70387844133344

> <r_i_glide_gscore>
-7.04637943878081

> <r_i_glide_lipo>
-3.5330904306784

> <r_i_glide_hbond>
-0.00392925235733895

> <r_i_glide_metal>
0

> <r_i_glide_rewards>
-2.1142221566525

> <r_i_glide_evdw>
-37.9438438415527

> <r_i_glide_ecoul>
-0.78291118144989

> <r_i_glide_erotb>
0.61949127020255

> <r_i_glide_esite>
0

> <r_i_glide_emodel>
-48.3048529795645

> <r_i_glide_energy>
-38.7267550230026

> <r_i_glide_einternal>
8.24259853363037

> <i_i_glide_confnum>
6

> <i_i_glide_posenum>
15

> <r_i_glide_eff_state_penalty>
0

> <s_user_duplicate_titles>
CHEMBL1952_lig482

> <i_f3d_flags>
0

> <s_m_subgroup_title>
dock_pv

> <s_m_subgroupid>
dock_pv

> <b_m_subgroup_collapsed>
1

$$$$
CHEMBL1952_lig231
                    3D
 Schrodinger Suite 2021-1.
 62 64  0  0  1  0            999 V2000
   13.5678   17.4712   31.7055 N   0  0  0  0  0  0
   14.3183   17.0546   30.7615 C   0  0  0  0  0  0
   15.4362   16.2621   30.9402 N   0  0  0  0  0  0
   13.7926   17.1273   33.0439 C   0  0  0  0  0  0
   13.0922   17.4727   33.9909 O   0  0  0  0  0  0
   14.9930   16.2272   33.2978 C   0  0  0  0  0  0
   15.7989   15.8376   32.2215 C   0  0  0  0  0  0
   16.9109   15.0295   32.4276 C   0  0  0  0  0  0
   17.1783   14.5396   33.7073 C   0  0  0  0  0  0
   16.3212   14.8371   34.7771 C   0  0  0  0  0  0
   15.2592   15.7288   34.5808 C   0  0  0  0  0  0
   16.5337   14.2016   36.1473 C   0  0  0  0  0  0
   16.1658   12.7744   36.1708 N   0  0  0  0  0  0
   14.9902   12.3923   36.8815 C   0  0  0  0  0  0
   14.9477   11.2594   37.7004 C   0  0  0  0  0  0
   13.7510   10.7481   38.1739 C   0  0  0  0  0  0
   12.5285   11.3553   37.8524 C   0  0  0  0  0  0
   12.5657   12.6110   37.1901 C   0  0  0  0  0  0
   13.7988   13.0926   36.7095 C   0  0  0  0  0  0
   11.2448   10.5945   38.1434 C   0  0  0  0  0  0
   10.1751   11.1540   38.3767 O   0  0  0  0  0  0
   11.3682    9.2537   38.0615 N   0  0  0  0  0  0
   10.3476    8.2026   38.1856 C   0  0  1  0  0  0
   11.0442    6.8072   38.1399 C   0  0  0  0  0  0
    9.4461    8.3246   39.4368 C   0  0  0  0  0  0
    8.3160    7.5758   39.2713 O   0  0  0  0  0  0
    9.7161    8.9906   40.4122 O   0  0  0  0  0  0
   11.7037    6.4091   36.7964 C   0  0  0  0  0  0
   12.9880    7.1753   36.4641 C   0  0  0  0  0  0
   12.9920    7.6604   35.1910 O   0  0  0  0  0  0
   13.8938    7.3732   37.2709 O   0  0  0  0  0  0
   13.9901   17.4746   29.3465 C   0  0  0  0  0  0
   17.2379   11.7987   35.8852 C   0  0  0  0  0  0
   11.3167   13.4548   36.9053 C   0  0  0  0  0  0
   16.7703   10.4698   35.4479 C   0  0  0  0  0  0
   10.6374   13.7284   38.0190 F   0  0  0  0  0  0
   11.6668   14.6280   36.3911 F   0  0  0  0  0  0
   10.5345   12.8371   36.0190 F   0  0  0  0  0  0
   16.1916    9.4281   35.1910 C   0  0  0  0  0  0
   15.9817   15.9635   30.1496 H   0  0  0  0  0  0
   17.5478   14.7489   31.6021 H   0  0  0  0  0  0
   18.0312   13.8917   33.8442 H   0  0  0  0  0  0
   14.6246   16.0003   35.4157 H   0  0  0  0  0  0
   17.5904   14.3094   36.3908 H   0  0  0  0  0  0
   15.9914   14.7611   36.9102 H   0  0  0  0  0  0
   15.8476   10.7167   37.9362 H   0  0  0  0  0  0
   13.7941    9.8270   38.7397 H   0  0  0  0  0  0
   13.8276   13.9834   36.1054 H   0  0  0  0  0  0
   12.2919    8.9028   37.8576 H   0  0  0  0  0  0
    9.6970    8.3114   37.3156 H   0  0  0  0  0  0
   11.7907    6.7433   38.9354 H   0  0  0  0  0  0
   10.3232    6.0217   38.3728 H   0  0  0  0  0  0
    8.2726    7.1382   38.4192 H   0  0  0  0  0  0
   11.9734    5.3515   36.8254 H   0  0  0  0  0  0
   10.9747    6.5053   35.9934 H   0  0  0  0  0  0
   12.1824    7.4321   34.6940 H   0  0  0  0  0  0
   12.9423   17.7636   29.2467 H   0  0  0  0  0  0
   14.5905   18.3345   29.0509 H   0  0  0  0  0  0
   14.1740   16.6671   28.6373 H   0  0  0  0  0  0
   17.9342   12.1662   35.1340 H   0  0  0  0  0  0
   17.7921   11.6085   36.7910 H   0  0  0  0  0  0
   15.5825    8.5694   35.0319 H   0  0  0  0  0  0
  1  2  2  0  0  0
  1  4  1  0  0  0
  2  3  1  0  0  0
  2 32  1  0  0  0
  3  7  1  0  0  0
  3 40  1  0  0  0
  4  5  2  0  0  0
  4  6  1  0  0  0
  6 11  1  0  0  0
  6  7  2  0  0  0
  7  8  1  0  0  0
  8  9  2  0  0  0
  8 41  1  0  0  0
  9 10  1  0  0  0
  9 42  1  0  0  0
 10 11  2  0  0  0
 10 12  1  0  0  0
 11 43  1  0  0  0
 12 13  1  0  0  0
 12 44  1  0  0  0
 12 45  1  0  0  0
 13 14  1  0  0  0
 13 33  1  0  0  0
 14 19  1  0  0  0
 14 15  2  0  0  0
 15 16  1  0  0  0
 15 46  1  0  0  0
 16 17  2  0  0  0
 16 47  1  0  0  0
 17 20  1  0  0  0
 17 18  1  0  0  0
 18 19  2  0  0  0
 18 34  1  0  0  0
 19 48  1  0  0  0
 20 21  2  0  0  0
 20 22  1  0  0  0
 22 23  1  0  0  0
 22 49  1  0  0  0
 23 24  1  0  0  0
 23 25  1  0  0  0
 23 50  1  0  0  0
 24 28  1  0  0  0
 24 51  1  0  0  0
 24 52  1  0  0  0
 25 26  1  0  0  0
 25 27  2  0  0  0
 26 53  1  0  0  0
 28 29  1  0  0  0
 28 54  1  0  0  0
 28 55  1  0  0  0
 29 30  1  0  0  0
 29 31  2  0  0  0
 30 56  1  0  0  0
 32 57  1  0  0  0
 32 58  1  0  0  0
 32 59  1  0  0  0
 33 35  1  0  0  0
 33 60  1  0  0  0
 33 61  1  0  0  0
 34 36  1  0  0  0
 34 37  1  0  0  0
 34 38  1  0  0  0
 35 39  3  0  0  0
 39 62  1  0  0  0
M  END
> <s_m_entry_id>
41365

> <s_m_entry_name>
dock_pv.482

> <s_m_Source_Path>
/home/csk/Desktop/cluster/DUD-E-result/tysy

> <s_m_Source_File>
dock_pv.maegz

> <i_m_Source_File_Index>
482

> <chembl_id>
CHEMBL102938

> <chembl_pref_name>
None

> <i_lp_mmshare_version>
53161

> <r_lp_tautomer_probability>
0.116051

> <s_lp_Force_Field>
OPLS_2005

> <r_lp_Energy>
15.939511

> <b_lp_Chiralities_Consistent>
1

> <s_lp_Variant>
CHEMBL1952_lig231-2

> <s_i_glide_gridfile>
glide-grid_1syn

> <i_i_glide_lignum>
459

> <i_i_glide_rotatable_bonds>
15

> <r_i_docking_score>
-7.04018133294726

> <r_i_glide_ligand_efficiency>
-0.180517470075571

> <r_i_glide_ligand_efficiency_sa>
-0.612172909436665

> <r_i_glide_ligand_efficiency_ln>
-1.50961472521544

> <r_i_glide_gscore>
-7.04018133294726

> <r_i_glide_lipo>
-3.45813310895483

> <r_i_glide_hbond>
0

> <r_i_glide_metal>
0

> <r_i_glide_rewards>
-0.825465111245016

> <r_i_glide_evdw>
-39.6499786376953

> <r_i_glide_ecoul>
-10.7142572402954

> <r_i_glide_erotb>
0.83783227962511

> <r_i_glide_esite>
-0.00477787444343881

> <r_i_glide_emodel>
-70.7803452647472

> <r_i_glide_energy>
-50.3642358779907

> <r_i_glide_einternal>
11.0375289916992

> <i_i_glide_confnum>
102

> <i_i_glide_posenum>
119

> <r_i_glide_eff_state_penalty>
0

> <s_user_duplicate_titles>
CHEMBL1952_lig231,171498

> <i_f3d_flags>
0

> <s_m_subgroup_title>
dock_pv

> <s_m_subgroupid>
dock_pv

> <b_m_subgroup_collapsed>
1

$$$$
CHEMBL1952_lig282
                    3D
 Schrodinger Suite 2021-1.
 48 50  0  0  1  0            999 V2000
   13.5779   16.3122   32.1005 C   0  0  0  0  0  0
   14.0139   16.8393   30.8014 N   0  0  0  0  0  0
   13.7548   17.2041   33.3482 C   0  0  0  0  0  0
   15.3919   17.9155   33.5860 S   0  0  0  0  0  0
   16.2968   16.4330   33.8568 C   0  0  0  0  0  0
   17.5586   16.2278   33.5909 N   0  0  0  0  0  0
   17.8861   15.0093   34.1613 N   0  0  0  0  0  0
   16.8001   14.5926   34.7650 C   0  0  0  0  0  0
   15.7536   15.4470   34.6139 O   0  0  0  0  0  0
   13.5271   17.8835   30.0134 C   0  0  0  0  0  0
   14.1674   17.7460   28.7942 C   0  0  0  0  0  0
   14.9919   16.7308   28.7911 N   0  0  0  0  0  0
   14.9330   16.2054   29.9764 C   0  0  0  0  0  0
   15.7724   14.9816   30.2974 C   0  0  0  0  0  0
   12.5644   18.8800   30.3756 N   0  3  0  0  0  0
   12.1920   19.6200   29.4712 O   0  0  0  0  0  0
   12.1920   18.9818   31.5318 O   0  5  0  0  0  0
   16.5781   13.2817   35.4280 C   0  0  0  0  0  0
   17.4285   12.2214   35.1260 C   0  0  0  0  0  0
   17.1654   10.9279   35.5905 C   0  0  0  0  0  0
   16.0601   10.7204   36.4286 C   0  0  0  0  0  0
   15.2264   11.7893   36.7935 C   0  0  0  0  0  0
   15.4902   13.0669   36.2739 C   0  0  0  0  0  0
   17.9115    9.8280   35.2106 O   0  0  0  0  0  0
   15.7923    9.4567   36.9047 O   0  0  0  0  0  0
   14.1691   11.5104   37.6418 O   0  0  0  0  0  0
   13.2988   12.5629   38.0424 C   0  0  0  0  0  0
   14.9546    8.6886   36.0506 C   0  0  0  0  0  0
   18.9909    9.9930   34.2954 C   0  0  0  0  0  0
   12.5483   15.9796   31.9907 H   0  0  0  0  0  0
   14.1920   15.4296   32.2844 H   0  0  0  0  0  0
   13.0316   18.0087   33.4162 H   0  0  0  0  0  0
   13.5278   16.6058   34.2312 H   0  0  0  0  0  0
   14.0293   18.3730   27.9239 H   0  0  0  0  0  0
   16.7098   14.9868   29.7392 H   0  0  0  0  0  0
   15.2591   14.0701   29.9909 H   0  0  0  0  0  0
   16.0595   14.8926   31.3442 H   0  0  0  0  0  0
   18.2632   12.4043   34.4649 H   0  0  0  0  0  0
   14.8487   13.9036   36.5052 H   0  0  0  0  0  0
   12.5402   12.1651   38.7161 H   0  0  0  0  0  0
   13.8377   13.3461   38.5780 H   0  0  0  0  0  0
   12.7825   13.0023   37.1878 H   0  0  0  0  0  0
   14.8188    7.6935   36.4742 H   0  0  0  0  0  0
   13.9683    9.1436   35.9447 H   0  0  0  0  0  0
   15.3905    8.5701   35.0570 H   0  0  0  0  0  0
   19.3919    9.0167   34.0403 H   0  0  0  0  0  0
   18.6687   10.4544   33.3604 H   0  0  0  0  0  0
   19.7960   10.5848   34.7331 H   0  0  0  0  0  0
  1  2  1  0  0  0
  1  3  1  0  0  0
  1 30  1  0  0  0
  1 31  1  0  0  0
  2 10  1  0  0  0
  2 13  1  0  0  0
  3  4  1  0  0  0
  3 32  1  0  0  0
  3 33  1  0  0  0
  4  5  1  0  0  0
  5  6  2  0  0  0
  5  9  1  0  0  0
  6  7  1  0  0  0
  7  8  2  0  0  0
  8  9  1  0  0  0
  8 18  1  0  0  0
 10 11  2  0  0  0
 10 15  1  0  0  0
 11 12  1  0  0  0
 11 34  1  0  0  0
 12 13  2  0  0  0
 13 14  1  0  0  0
 14 35  1  0  0  0
 14 36  1  0  0  0
 14 37  1  0  0  0
 15 16  2  0  0  0
 15 17  1  0  0  0
 18 19  2  0  0  0
 18 23  1  0  0  0
 19 20  1  0  0  0
 19 38  1  0  0  0
 20 21  2  0  0  0
 20 24  1  0  0  0
 21 22  1  0  0  0
 21 25  1  0  0  0
 22 23  2  0  0  0
 22 26  1  0  0  0
 23 39  1  0  0  0
 24 29  1  0  0  0
 25 28  1  0  0  0
 26 27  1  0  0  0
 27 40  1  0  0  0
 27 41  1  0  0  0
 27 42  1  0  0  0
 28 43  1  0  0  0
 28 44  1  0  0  0
 28 45  1  0  0  0
 29 46  1  0  0  0
 29 47  1  0  0  0
 29 48  1  0  0  0
M  CHG  2  15   1  17  -1
M  END
> <s_m_entry_id>
41367

> <s_m_entry_name>
dock_pv.484

> <s_m_Source_Path>
/home/csk/Desktop/cluster/DUD-E-result/tysy

> <s_m_Source_File>
dock_pv.maegz

> <i_m_Source_File_Index>
484

> <chembl_id>
CHEMBL2348559

> <chembl_pref_name>
None

> <i_lp_mmshare_version>
53161

> <r_lp_tautomer_probability>
1

> <s_lp_Force_Field>
OPLS_2005

> <r_lp_Energy>
27.031425

> <b_lp_Chiralities_Consistent>
1

> <s_lp_Variant>
CHEMBL1952_lig282-1

> <s_i_glide_gridfile>
glide-grid_1syn

> <i_i_glide_lignum>
552

> <i_i_glide_rotatable_bonds>
9

> <r_i_docking_score>
-7.02893903338481

> <r_i_glide_ligand_efficiency>
-0.242377208047752

> <r_i_glide_ligand_efficiency_sa>
-0.744659573612038

> <r_i_glide_ligand_efficiency_ln>
-1.60944880013007

> <r_i_glide_gscore>
-7.02893903338481

> <r_i_glide_lipo>
-3.48980337601025

> <r_i_glide_hbond>
-0.129620357855478

> <r_i_glide_metal>
0

> <r_i_glide_rewards>
-1.38981348288426

> <r_i_glide_evdw>
-46.9579391479492

> <r_i_glide_ecoul>
-1.11348652839661

> <r_i_glide_erotb>
0.557464380669193

> <r_i_glide_esite>
-0.062246260647069

> <r_i_glide_emodel>
-65.498103344835

> <r_i_glide_energy>
-48.0714256763458

> <r_i_glide_einternal>
5.38294363021851

> <i_i_glide_confnum>
22

> <i_i_glide_posenum>
6

> <r_i_glide_eff_state_penalty>
0

> <s_user_duplicate_titles>
CHEMBL1952_lig282

> <i_f3d_flags>
0

> <s_m_subgroup_title>
dock_pv

> <s_m_subgroupid>
dock_pv

> <b_m_subgroup_collapsed>
1

$$$$
CHEMBL1952_lig84
                    3D
 Schrodinger Suite 2021-1.
 56 58  0  0  1  0            999 V2000
   16.2657   15.9227   32.5251 N   0  0  0  0  0  0
   15.2592   16.8694   32.3794 C   0  0  0  0  0  0
   14.5908   16.7943   31.1930 N   0  0  0  0  0  0
   16.8324   15.7113   33.8550 C   0  0  1  0  0  0
   16.5651   15.0628   31.4926 C   0  0  0  0  0  0
   15.8830   15.0283   30.3299 C   0  0  0  0  0  0
   14.7625   15.9392   30.1513 C   0  0  0  0  0  0
   15.3958   10.8307   36.4441 P   0  0  1  0  0  0
   16.2100   14.6281   34.4782 O   0  0  0  0  0  0
   12.9157    9.5744   36.4393 C   0  0  2  0  0  0
   18.3371   15.5396   34.0542 C   0  0  0  0  0  0
   13.7732   10.6781   35.9911 N   0  0  1  0  0  0
   17.0901   13.5264   34.6833 C   0  0  1  0  0  0
   13.3026    8.2255   35.8482 C   0  0  0  0  0  0
   18.4906   14.0530   34.3384 C   0  0  1  0  0  0
   16.9124   13.0209   36.1232 C   0  0  0  0  0  0
   14.9170   17.7260   33.1951 O   0  0  0  0  0  0
   15.6273   12.4388   36.2884 O   0  0  0  0  0  0
   11.4217    9.8719   36.1474 C   0  0  0  0  0  0
   15.7896   10.2279   37.7433 O   0  0  0  0  0  0
   14.0057   15.9654   29.1910 O   0  0  0  0  0  0
   13.9361    8.0820   34.7968 O   0  0  0  0  0  0
   16.1919   14.1566   29.3461 F   0  0  0  0  0  0
   16.1997   10.2053   35.1910 O   0  0  0  0  0  0
   12.8520    7.2174   36.6282 O   0  0  0  0  0  0
   18.9920   13.4269   33.1887 O   0  0  0  0  0  0
   10.8253   11.0069   36.9687 C   0  0  0  0  0  0
   13.0829    5.8632   36.2719 C   0  0  0  0  0  0
   10.9428   12.3477   36.5425 C   0  0  0  0  0  0
   10.2863   10.7448   38.2461 C   0  0  0  0  0  0
    9.8094   11.7891   39.0281 C   0  0  0  0  0  0
   10.4682   13.3789   37.3423 C   0  0  0  0  0  0
    9.8942   13.1001   38.5757 C   0  0  0  0  0  0
   13.8369   17.4557   31.0862 H   0  0  0  0  0  0
   16.5552   16.6070   34.3910 H   0  0  0  0  0  0
   17.3879   14.3978   31.6917 H   0  0  0  0  0  0
   13.0292    9.5048   37.5225 H   0  0  0  0  0  0
   18.6499   16.1259   34.9187 H   0  0  0  0  0  0
   18.9005   15.8863   33.1910 H   0  0  0  0  0  0
   13.2730   11.5470   35.8087 H   0  0  0  0  0  0
   16.8308   12.7084   34.0124 H   0  0  0  0  0  0
   19.1910   13.8952   35.1588 H   0  0  0  0  0  0
   16.9919   13.8747   36.7910 H   0  0  0  0  0  0
   17.6984   12.3129   36.3909 H   0  0  0  0  0  0
   10.8079    8.9900   36.3437 H   0  0  0  0  0  0
   11.2816   10.0908   35.0862 H   0  0  0  0  0  0
   16.9782   10.7125   34.8978 H   0  0  0  0  0  0
   19.8461   12.9952   33.3427 H   0  0  0  0  0  0
   12.5622    5.2023   36.9646 H   0  0  0  0  0  0
   12.7177    5.6504   35.2656 H   0  0  0  0  0  0
   14.1473    5.6282   36.3169 H   0  0  0  0  0  0
   11.3918   12.5808   35.5908 H   0  0  0  0  0  0
   10.2293    9.7304   38.6133 H   0  0  0  0  0  0
    9.3712   11.5785   39.9909 H   0  0  0  0  0  0
   10.5458   14.4018   37.0033 H   0  0  0  0  0  0
    9.5188   13.9097   39.1846 H   0  0  0  0  0  0
  1  2  1  0  0  0
  1  4  1  0  0  0
  1  5  1  0  0  0
  2  3  1  0  0  0
  2 17  2  0  0  0
  3  7  1  0  0  0
  3 34  1  0  0  0
  4  9  1  0  0  0
  4 11  1  0  0  0
  4 35  1  0  0  0
  5  6  2  0  0  0
  5 36  1  0  0  0
  6  7  1  0  0  0
  6 23  1  0  0  0
  7 21  2  0  0  0
  8 18  1  0  0  0
  8 12  1  0  0  0
  8 20  2  0  0  0
  8 24  1  0  0  0
  9 13  1  0  0  0
 10 12  1  0  0  0
 10 14  1  0  0  0
 10 19  1  0  0  0
 10 37  1  0  0  0
 11 15  1  0  0  0
 11 38  1  0  0  0
 11 39  1  0  0  0
 12 40  1  0  0  0
 13 16  1  0  0  0
 13 15  1  0  0  0
 13 41  1  0  0  0
 14 22  2  0  0  0
 14 25  1  0  0  0
 15 26  1  0  0  0
 15 42  1  0  0  0
 16 18  1  0  0  0
 16 43  1  0  0  0
 16 44  1  0  0  0
 19 27  1  0  0  0
 19 45  1  0  0  0
 19 46  1  0  0  0
 24 47  1  0  0  0
 25 28  1  0  0  0
 26 48  1  0  0  0
 27 29  2  0  0  0
 27 30  1  0  0  0
 28 49  1  0  0  0
 28 50  1  0  0  0
 28 51  1  0  0  0
 29 32  1  0  0  0
 29 52  1  0  0  0
 30 31  2  0  0  0
 30 53  1  0  0  0
 31 33  1  0  0  0
 31 54  1  0  0  0
 32 33  2  0  0  0
 32 55  1  0  0  0
 33 56  1  0  0  0
M  END
> <s_m_entry_id>
41369

> <s_m_entry_name>
dock_pv.486

> <s_m_Source_Path>
/home/csk/Desktop/cluster/DUD-E-result/tysy

> <s_m_Source_File>
dock_pv.maegz

> <i_m_Source_File_Index>
486

> <chembl_id>
CHEMBL96148

> <chembl_pref_name>
None

> <i_lp_mmshare_version>
53161

> <r_lp_tautomer_probability>
0.999537046341301

> <s_lp_Force_Field>
OPLS_2005

> <r_lp_Energy>
7.595762

> <b_lp_Chiralities_Consistent>
1

> <s_lp_Variant>
CHEMBL1952_lig84-2

> <s_i_glide_gridfile>
glide-grid_1syn

> <i_i_glide_lignum>
135

> <i_i_glide_rotatable_bonds>
12

> <r_i_docking_score>
-7.02470515319224

> <r_i_glide_ligand_efficiency>
-0.212869853127037

> <r_i_glide_ligand_efficiency_sa>
-0.682787360930352

> <r_i_glide_ligand_efficiency_ln>
-1.56225805409326

> <r_i_glide_gscore>
-7.02470515319224

> <r_i_glide_lipo>
-1.90138460760474

> <r_i_glide_hbond>
-0.50875714596469

> <r_i_glide_metal>
0

> <r_i_glide_rewards>
-1.70899866472074

> <r_i_glide_evdw>
-44.1682815551758

> <r_i_glide_ecoul>
-9.21213436126709

> <r_i_glide_erotb>
0.68466949704679

> <r_i_glide_esite>
0

> <r_i_glide_emodel>
-72.1501223670317

> <r_i_glide_energy>
-53.3804159164429

> <r_i_glide_einternal>
5.37224340438843

> <i_i_glide_confnum>
355

> <i_i_glide_posenum>
131

> <r_i_glide_eff_state_penalty>
0

> <s_user_duplicate_titles>
CHEMBL1952_lig84

> <i_f3d_flags>
0

> <s_m_subgroup_title>
dock_pv

> <s_m_subgroupid>
dock_pv

> <b_m_subgroup_collapsed>
1

$$$$
CHEMBL1952_lig381
                    3D
 Schrodinger Suite 2021-1.
 74 76  0  0  1  0            999 V2000
   17.0713   12.6461   35.1947 N   0  0  0  0  0  0
   16.0174   12.9424   35.9926 C   0  0  0  0  0  0
   15.3877   11.9403   36.7998 C   0  0  0  0  0  0
   17.5053   11.3727   35.1916 C   0  0  0  0  0  0
   16.9860   10.3407   35.8844 N   0  0  0  0  0  0
   15.9317   10.6234   36.6922 C   0  0  0  0  0  0
    9.6456   10.8203   33.7546 C   0  0  0  0  0  0
    8.8913   11.7305   33.1025 N   0  0  0  0  0  0
    8.4218   10.6189   30.8823 C   0  0  0  0  0  0
   14.5015   15.3258   29.5888 C   0  0  0  0  0  0
   12.0634   14.6281   29.9911 N   0  0  0  0  0  0
   11.5361   12.1150   39.0183 N   0  0  0  0  0  0
   11.7830   13.8126   40.8903 C   0  0  0  0  0  0
    8.7667   11.9270   31.6443 C   0  0  2  0  0  0
   10.7761   14.6828   29.5910 C   0  0  0  0  0  0
   12.2059   14.1492   41.9862 C   0  0  0  0  0  0
   13.0507   15.7326   29.9866 C   0  0  1  0  0  0
   14.3003   12.1565   37.7020 C   0  0  0  0  0  0
    9.9058   11.0695   35.2268 C   0  0  0  0  0  0
   13.7538   18.2328   33.0241 C   0  0  0  0  0  0
   15.5231   14.2171   36.0645 O   0  0  0  0  0  0
   10.8822   11.7200   37.8071 C   0  0  0  0  0  0
   12.6791   11.3060   39.5026 C   0  0  0  0  0  0
   10.1920    9.8726   33.1913 O   0  0  0  0  0  0
   13.8054   11.1020   38.4822 C   0  0  0  0  0  0
   15.4318   16.1033   29.5728 O   0  0  0  0  0  0
    7.4142    9.9809   31.0984 O   0  0  0  0  0  0
   15.3882    9.5736   37.4607 C   0  0  0  0  0  0
   18.5920   11.0844   34.3916 N   0  0  0  0  0  0
   10.2657   15.7194   29.1757 O   0  0  0  0  0  0
   14.0377   17.8152   34.1459 O   0  0  0  0  0  0
    9.5597   12.2784   35.8415 C   0  0  0  0  0  0
   10.6226   10.1299   35.9751 C   0  0  0  0  0  0
   10.0501   12.6028   37.1009 C   0  0  0  0  0  0
   11.0781   10.4438   37.2509 C   0  0  0  0  0  0
   10.0028   12.7283   31.1355 C   0  0  0  0  0  0
   12.8889   16.5866   31.2792 C   0  0  0  0  0  0
    9.9108   13.4172   29.7496 C   0  0  0  0  0  0
   14.0680   17.4727   31.7382 C   0  0  0  0  0  0
   11.2780   13.4759   39.5395 C   0  0  0  0  0  0
    9.3917   10.2658   29.9934 O   0  0  0  0  0  0
   14.5924   14.0223   29.1910 O   0  0  0  0  0  0
   14.3528    9.8255   38.3529 C   0  0  0  0  0  0
   13.1369   19.4274   32.7910 O   0  0  0  0  0  0
    8.3888   12.4019   33.6577 H   0  0  0  0  0  0
   12.3849   13.7481   30.3795 H   0  0  0  0  0  0
    7.8934   12.5682   31.5196 H   0  0  0  0  0  0
   12.5917   14.4393   42.9392 H   0  0  0  0  0  0
   12.7760   16.4141   29.1809 H   0  0  0  0  0  0
   13.8713   13.1418   37.8070 H   0  0  0  0  0  0
   14.8482   14.3345   36.7317 H   0  0  0  0  0  0
   12.2951   10.3457   39.8514 H   0  0  0  0  0  0
   13.1534   11.7483   40.3772 H   0  0  0  0  0  0
   15.7916    8.5764   37.3613 H   0  0  0  0  0  0
   18.9844   10.1580   34.4158 H   0  0  0  0  0  0
   19.0578   11.8291   33.8867 H   0  0  0  0  0  0
    8.9805   13.0267   35.3251 H   0  0  0  0  0  0
   10.8867    9.1700   35.5512 H   0  0  0  0  0  0
    9.8162   13.5875   37.4737 H   0  0  0  0  0  0
   11.6500    9.6910   37.7661 H   0  0  0  0  0  0
   10.1921   13.4947   31.8860 H   0  0  0  0  0  0
   10.8652   12.0635   31.1465 H   0  0  0  0  0  0
   12.0539   17.2623   31.1023 H   0  0  0  0  0  0
   12.5925   15.9436   32.1041 H   0  0  0  0  0  0
   10.1639   12.7220   28.9469 H   0  0  0  0  0  0
    8.8817   13.7235   29.5922 H   0  0  0  0  0  0
   14.9455   16.8619   31.9481 H   0  0  0  0  0  0
   14.3513   18.1832   30.9602 H   0  0  0  0  0  0
   11.6646   14.2243   38.8428 H   0  0  0  0  0  0
   10.1974   13.6250   39.6138 H   0  0  0  0  0  0
    9.2121    9.3912   29.6398 H   0  0  0  0  0  0
   13.7675   13.5314   29.2264 H   0  0  0  0  0  0
   13.9691    9.0089   38.9475 H   0  0  0  0  0  0
   12.9921   19.9128   33.6239 H   0  0  0  0  0  0
  1  2  2  0  0  0
  1  4  1  0  0  0
  2  3  1  0  0  0
  2 21  1  0  0  0
  3 18  2  0  0  0
  3  6  1  0  0  0
  4  5  2  0  0  0
  4 29  1  0  0  0
  5  6  1  0  0  0
  6 28  2  0  0  0
  7 19  1  0  0  0
  7  8  1  0  0  0
  7 24  2  0  0  0
  8 14  1  0  0  0
  8 45  1  0  0  0
  9 14  1  0  0  0
  9 27  2  0  0  0
  9 41  1  0  0  0
 10 17  1  0  0  0
 10 26  2  0  0  0
 10 42  1  0  0  0
 11 15  1  0  0  0
 11 17  1  0  0  0
 11 46  1  0  0  0
 12 23  1  0  0  0
 12 22  1  0  0  0
 12 40  1  0  0  0
 13 40  1  0  0  0
 13 16  3  0  0  0
 14 36  1  0  0  0
 14 47  1  0  0  0
 15 38  1  0  0  0
 15 30  2  0  0  0
 16 48  1  0  0  0
 17 37  1  0  0  0
 17 49  1  0  0  0
 18 25  1  0  0  0
 18 50  1  0  0  0
 19 33  2  0  0  0
 19 32  1  0  0  0
 20 39  1  0  0  0
 20 31  2  0  0  0
 20 44  1  0  0  0
 21 51  1  0  0  0
 22 34  1  0  0  0
 22 35  2  0  0  0
 23 25  1  0  0  0
 23 52  1  0  0  0
 23 53  1  0  0  0
 25 43  2  0  0  0
 28 43  1  0  0  0
 28 54  1  0  0  0
 29 55  1  0  0  0
 29 56  1  0  0  0
 32 34  2  0  0  0
 32 57  1  0  0  0
 33 35  1  0  0  0
 33 58  1  0  0  0
 34 59  1  0  0  0
 35 60  1  0  0  0
 36 38  1  0  0  0
 36 61  1  0  0  0
 36 62  1  0  0  0
 37 39  1  0  0  0
 37 63  1  0  0  0
 37 64  1  0  0  0
 38 65  1  0  0  0
 38 66  1  0  0  0
 39 67  1  0  0  0
 39 68  1  0  0  0
 40 69  1  0  0  0
 40 70  1  0  0  0
 41 71  1  0  0  0
 42 72  1  0  0  0
 43 73  1  0  0  0
 44 74  1  0  0  0
M  END
> <s_m_entry_id>
41370

> <s_m_entry_name>
dock_pv.487

> <s_m_Source_Path>
/home/csk/Desktop/cluster/DUD-E-result/tysy

> <s_m_Source_File>
dock_pv.maegz

> <i_m_Source_File_Index>
487

> <chembl_id>
CHEMBL295681

> <chembl_pref_name>
None

> <i_lp_mmshare_version>
53161

> <r_lp_tautomer_probability>
1

> <s_lp_Force_Field>
OPLS_2005

> <r_lp_Energy>
4.062926

> <b_lp_Chiralities_Consistent>
1

> <s_lp_Variant>
CHEMBL1952_lig381-4

> <s_i_glide_gridfile>
glide-grid_1syn

> <i_i_glide_lignum>
758

> <i_i_glide_rotatable_bonds>
22

> <r_i_docking_score>
-7.01166914705198

> <r_i_glide_ligand_efficiency>
-0.159356116978454

> <r_i_glide_ligand_efficiency_sa>
-0.562582601589271

> <r_i_glide_ligand_efficiency_ln>
-1.46559181043779

> <r_i_glide_gscore>
-7.01166914705198

> <r_i_glide_lipo>
-1.96782806737853

> <r_i_glide_hbond>
-0.265178345628858

> <r_i_glide_metal>
0

> <r_i_glide_rewards>
-1.16982656997741

> <r_i_glide_evdw>
-58.3652610778809

> <r_i_glide_ecoul>
-9.64416790008545

> <r_i_glide_erotb>
0.907075839039948

> <r_i_glide_esite>
-0.151023764200262

> <r_i_glide_emodel>
-86.2248698227365

> <r_i_glide_energy>
-68.0094289779663

> <r_i_glide_einternal>
15.875096321106

> <i_i_glide_confnum>
1

> <i_i_glide_posenum>
108

> <r_i_glide_eff_state_penalty>
0

> <s_user_duplicate_titles>
CHEMBL1952_lig381

> <i_f3d_flags>
0

> <s_m_subgroup_title>
dock_pv

> <s_m_subgroupid>
dock_pv

> <b_m_subgroup_collapsed>
1

$$$$
CHEMBL1952_lig84
                    3D
 Schrodinger Suite 2021-1.
 56 58  0  0  1  0            999 V2000
   12.2172   10.3758   36.7551 N   0  0  0  0  0  0
   11.7109    9.5760   35.7484 C   0  0  0  0  0  0
   12.5920    8.6281   35.2982 N   0  0  0  0  0  0
   11.4096   11.4925   37.2457 C   0  0  2  0  0  0
   13.4900   10.1647   37.2364 C   0  0  0  0  0  0
   14.3252    9.2143   36.7708 C   0  0  0  0  0  0
   13.8604    8.3410   35.7023 C   0  0  0  0  0  0
   14.5121   14.2355   36.3972 P   0  0  1  0  0  0
   12.1686   12.6526   37.2944 O   0  0  0  0  0  0
   16.3547   15.1326   34.5844 C   0  0  2  0  0  0
   10.7156   11.3589   38.5986 C   0  0  0  0  0  0
   15.9433   15.0278   35.9901 N   0  0  1  0  0  0
   12.2610   13.2413   38.5802 C   0  0  1  0  0  0
   17.8392   14.8687   34.4203 C   0  0  0  0  0  0
   11.5725   12.2261   39.5143 C   0  0  2  0  0  0
   13.7418   13.5739   38.8910 C   0  0  0  0  0  0
   10.5835    9.6450   35.2595 O   0  0  0  0  0  0
   14.3672   14.4896   38.0020 O   0  0  0  0  0  0
   15.8830   16.4447   33.8920 C   0  0  0  0  0  0
   13.3212   14.6280   35.5988 O   0  0  0  0  0  0
   14.5067    7.4293   35.1963 O   0  0  0  0  0  0
   18.6945   15.7588   34.3906 O   0  0  0  0  0  0
   15.5751    9.0601   37.2621 F   0  0  0  0  0  0
   14.9420   12.6769   36.2850 O   0  0  0  0  0  0
   18.0789   13.5481   34.2956 O   0  0  0  0  0  0
   12.4308   11.4183   40.3025 O   0  0  0  0  0  0
   15.4858   16.3306   32.4212 C   0  0  0  0  0  0
   19.3917   13.0787   34.0332 C   0  0  0  0  0  0
   14.5257   17.2261   31.8987 C   0  0  0  0  0  0
   16.1548   15.4639   31.5237 C   0  0  0  0  0  0
   15.8038   15.4407   30.1798 C   0  0  0  0  0  0
   14.1933   17.1925   30.5504 C   0  0  0  0  0  0
   14.8249   16.2980   29.6963 C   0  0  0  0  0  0
   12.2052    8.0226   34.5815 H   0  0  0  0  0  0
   10.6580   11.6984   36.4792 H   0  0  0  0  0  0
   13.7862   10.8595   37.9990 H   0  0  0  0  0  0
   15.8207   14.3383   34.0712 H   0  0  0  0  0  0
   10.6223   10.3154   38.9038 H   0  0  0  0  0  0
    9.7116   11.7786   38.5077 H   0  0  0  0  0  0
   16.2005   15.8111   36.5972 H   0  0  0  0  0  0
   11.6907   14.1700   38.5364 H   0  0  0  0  0  0
   10.9242   12.7686   40.2055 H   0  0  0  0  0  0
   14.3567   12.6790   38.9434 H   0  0  0  0  0  0
   13.7933   14.0187   39.8850 H   0  0  0  0  0  0
   16.6133   17.2489   33.9909 H   0  0  0  0  0  0
   14.9957   16.8102   34.4131 H   0  0  0  0  0  0
   15.3995   12.4492   35.4544 H   0  0  0  0  0  0
   12.8589   10.7796   39.7280 H   0  0  0  0  0  0
   19.3920   11.9895   34.0164 H   0  0  0  0  0  0
   19.7426   13.4297   33.0616 H   0  0  0  0  0  0
   20.1009   13.4105   34.7911 H   0  0  0  0  0  0
   14.0345   17.9399   32.5457 H   0  0  0  0  0  0
   16.9339   14.7987   31.8617 H   0  0  0  0  0  0
   16.3042   14.7573   29.5058 H   0  0  0  0  0  0
   13.4480   17.8734   30.1638 H   0  0  0  0  0  0
   14.5651   16.2773   28.6475 H   0  0  0  0  0  0
  1  2  1  0  0  0
  1  4  1  0  0  0
  1  5  1  0  0  0
  2  3  1  0  0  0
  2 17  2  0  0  0
  3  7  1  0  0  0
  3 34  1  0  0  0
  4  9  1  0  0  0
  4 11  1  0  0  0
  4 35  1  0  0  0
  5  6  2  0  0  0
  5 36  1  0  0  0
  6  7  1  0  0  0
  6 23  1  0  0  0
  7 21  2  0  0  0
  8 18  1  0  0  0
  8 12  1  0  0  0
  8 20  2  0  0  0
  8 24  1  0  0  0
  9 13  1  0  0  0
 10 12  1  0  0  0
 10 14  1  0  0  0
 10 19  1  0  0  0
 10 37  1  0  0  0
 11 15  1  0  0  0
 11 38  1  0  0  0
 11 39  1  0  0  0
 12 40  1  0  0  0
 13 16  1  0  0  0
 13 15  1  0  0  0
 13 41  1  0  0  0
 14 22  2  0  0  0
 14 25  1  0  0  0
 15 26  1  0  0  0
 15 42  1  0  0  0
 16 18  1  0  0  0
 16 43  1  0  0  0
 16 44  1  0  0  0
 19 27  1  0  0  0
 19 45  1  0  0  0
 19 46  1  0  0  0
 24 47  1  0  0  0
 25 28  1  0  0  0
 26 48  1  0  0  0
 27 29  2  0  0  0
 27 30  1  0  0  0
 28 49  1  0  0  0
 28 50  1  0  0  0
 28 51  1  0  0  0
 29 32  1  0  0  0
 29 52  1  0  0  0
 30 31  2  0  0  0
 30 53  1  0  0  0
 31 33  1  0  0  0
 31 54  1  0  0  0
 32 33  2  0  0  0
 32 55  1  0  0  0
 33 56  1  0  0  0
M  END
> <s_m_entry_id>
41371

> <s_m_entry_name>
dock_pv.488

> <s_m_Source_Path>
/home/csk/Desktop/cluster/DUD-E-result/tysy

> <s_m_Source_File>
dock_pv.maegz

> <i_m_Source_File_Index>
488

> <chembl_id>
CHEMBL96148

> <chembl_pref_name>
None

> <i_lp_mmshare_version>
53161

> <r_lp_tautomer_probability>
0.999537046341301

> <s_lp_Force_Field>
OPLS_2005

> <r_lp_Energy>
17.372962

> <b_lp_Chiralities_Consistent>
1

> <s_lp_Variant>
CHEMBL1952_lig84-9

> <s_i_glide_gridfile>
glide-grid_1syn

> <i_i_glide_lignum>
142

> <i_i_glide_rotatable_bonds>
12

> <r_i_docking_score>
-7.01148948062343

> <r_i_glide_ligand_efficiency>
-0.21246937820071

> <r_i_glide_ligand_efficiency_sa>
-0.681502823857351

> <r_i_glide_ligand_efficiency_ln>
-1.55931895694104

> <r_i_glide_gscore>
-7.01148948062343

> <r_i_glide_lipo>
-2.78214257802374

> <r_i_glide_hbond>
-0.850566806071539

> <r_i_glide_metal>
0

> <r_i_glide_rewards>
-0.653926987926365

> <r_i_glide_evdw>
-43.0312118530273

> <r_i_glide_ecoul>
-8.13389015197754

> <r_i_glide_erotb>
0.68466949704679

> <r_i_glide_esite>
-0.0378784902005739

> <r_i_glide_emodel>
-67.8230494590702

> <r_i_glide_energy>
-51.1651020050049

> <r_i_glide_einternal>
10.407190322876

> <i_i_glide_confnum>
188

> <i_i_glide_posenum>
205

> <r_i_glide_eff_state_penalty>
0

> <s_user_duplicate_titles>
CHEMBL1952_lig84

> <i_f3d_flags>
0

> <s_m_subgroup_title>
dock_pv

> <s_m_subgroupid>
dock_pv

> <b_m_subgroup_collapsed>
1

$$$$
CHEMBL1952_lig244
                    3D
 Schrodinger Suite 2021-1.
 57 59  0  0  1  0            999 V2000
   15.7877   13.2740   36.0652 C   0  0  0  0  0  0
   14.6613   13.4808   36.9472 C   0  0  0  0  0  0
   14.1944   14.6029   37.1623 O   0  0  0  0  0  0
   14.1579   12.3596   37.4974 N   0  0  0  0  0  0
   13.0288   12.2860   38.4450 C   0  0  1  0  0  0
   13.3899   13.0849   39.7348 C   0  0  0  0  0  0
   11.6644   12.6802   37.8137 C   0  0  0  0  0  0
   10.6494   12.4575   38.6934 O   0  0  0  0  0  0
   11.5056   13.0780   36.6802 O   0  0  0  0  0  0
   12.6702   12.6189   41.0153 C   0  0  0  0  0  0
   13.3287   13.1758   42.2752 C   0  0  0  0  0  0
   14.2545   12.3222   42.7939 O   0  0  0  0  0  0
   13.0066   14.2399   42.7969 O   0  0  0  0  0  0
   13.7127   18.7862   32.7563 N   0  0  0  0  0  0
   13.0429   18.6358   31.5762 C   0  0  0  0  0  0
   13.3633   17.7267   30.7283 N   0  0  0  0  0  0
   14.8126   18.1063   33.1470 C   0  0  0  0  0  0
   15.3916   18.3797   34.1867 O   0  0  0  0  0  0
   15.2164   17.0392   32.1603 C   0  0  0  0  0  0
   14.4522   16.8878   31.0027 C   0  0  0  0  0  0
   14.7792   15.8897   30.0887 C   0  0  0  0  0  0
   15.8440   15.0257   30.3595 C   0  0  0  0  0  0
   16.5976   15.1612   31.5349 C   0  0  0  0  0  0
   16.3195   16.2277   32.3976 C   0  0  0  0  0  0
   17.7032   14.1400   31.8353 C   0  0  0  0  0  0
   18.2189   14.1473   33.2163 N   0  0  0  0  0  0
   11.8853   19.5428   31.3124 C   0  0  0  0  0  0
   17.4991   13.6216   34.2768 C   0  0  0  0  0  0
   16.4226   14.6281   35.1908 S   0  0  0  0  0  0
   16.5318   12.1236   35.7803 C   0  0  0  0  0  0
   17.5086   12.3284   34.7909 C   0  0  0  0  0  0
   19.6498   14.4566   33.2570 C   0  0  0  0  0  0
   20.2699   14.5340   34.6482 C   0  0  0  0  0  0
   14.5549   11.4760   37.2199 H   0  0  0  0  0  0
   12.9613   11.2270   38.6962 H   0  0  0  0  0  0
   13.1931   14.1482   39.5816 H   0  0  0  0  0  0
   14.4630   13.0275   39.9071 H   0  0  0  0  0  0
    9.8177   12.6906   38.2747 H   0  0  0  0  0  0
   12.6623   11.5300   41.0768 H   0  0  0  0  0  0
   11.6290   12.9412   40.9966 H   0  0  0  0  0  0
   14.6037   12.6232   43.6393 H   0  0  0  0  0  0
   13.4092   19.4994   33.4082 H   0  0  0  0  0  0
   14.1954   15.7717   29.1892 H   0  0  0  0  0  0
   16.0683   14.2278   29.6645 H   0  0  0  0  0  0
   16.9407   16.4095   33.2608 H   0  0  0  0  0  0
   18.5030   14.2976   31.1095 H   0  0  0  0  0  0
   17.3206   13.1393   31.6265 H   0  0  0  0  0  0
   11.7922   19.7616   30.2478 H   0  0  0  0  0  0
   10.9889   19.0296   31.6414 H   0  0  0  0  0  0
   11.9685   20.4902   31.8452 H   0  0  0  0  0  0
   16.3633   11.1633   36.2422 H   0  0  0  0  0  0
   18.1565   11.5488   34.4154 H   0  0  0  0  0  0
   20.1922   13.7088   32.6822 H   0  0  0  0  0  0
   19.8042   15.4280   32.7901 H   0  0  0  0  0  0
   21.3545   14.6280   34.5925 H   0  0  0  0  0  0
   19.8765   15.3932   35.1909 H   0  0  0  0  0  0
   20.0578   13.6183   35.1908 H   0  0  0  0  0  0
  1  2  1  0  0  0
  1 29  1  0  0  0
  1 30  2  0  0  0
  2  3  2  0  0  0
  2  4  1  0  0  0
  4  5  1  0  0  0
  4 34  1  0  0  0
  5  6  1  0  0  0
  5  7  1  0  0  0
  5 35  1  0  0  0
  6 10  1  0  0  0
  6 36  1  0  0  0
  6 37  1  0  0  0
  7  9  2  0  0  0
  7  8  1  0  0  0
  8 38  1  0  0  0
 10 11  1  0  0  0
 10 39  1  0  0  0
 10 40  1  0  0  0
 11 12  1  0  0  0
 11 13  2  0  0  0
 12 41  1  0  0  0
 14 15  1  0  0  0
 14 17  1  0  0  0
 14 42  1  0  0  0
 15 27  1  0  0  0
 15 16  2  0  0  0
 16 20  1  0  0  0
 17 19  1  0  0  0
 17 18  2  0  0  0
 19 20  2  0  0  0
 19 24  1  0  0  0
 20 21  1  0  0  0
 21 22  2  0  0  0
 21 43  1  0  0  0
 22 23  1  0  0  0
 22 44  1  0  0  0
 23 24  2  0  0  0
 23 25  1  0  0  0
 24 45  1  0  0  0
 25 26  1  0  0  0
 25 46  1  0  0  0
 25 47  1  0  0  0
 26 28  1  0  0  0
 26 32  1  0  0  0
 27 48  1  0  0  0
 27 49  1  0  0  0
 27 50  1  0  0  0
 28 29  1  0  0  0
 28 31  2  0  0  0
 30 31  1  0  0  0
 30 51  1  0  0  0
 31 52  1  0  0  0
 32 33  1  0  0  0
 32 53  1  0  0  0
 32 54  1  0  0  0
 33 55  1  0  0  0
 33 56  1  0  0  0
 33 57  1  0  0  0
M  END
> <s_m_entry_id>
41372

> <s_m_entry_name>
dock_pv.489

> <s_m_Source_Path>
/home/csk/Desktop/cluster/DUD-E-result/tysy

> <s_m_Source_File>
dock_pv.maegz

> <i_m_Source_File_Index>
489

> <chembl_id>
CHEMBL1095266

> <chembl_pref_name>
None

> <i_lp_mmshare_version>
53161

> <r_lp_tautomer_probability>
0.883938

> <s_lp_Force_Field>
OPLS_2005

> <r_lp_Energy>
16.637109

> <b_lp_Chiralities_Consistent>
1

> <s_lp_Variant>
CHEMBL1952_lig244-1

> <s_i_glide_gridfile>
glide-grid_1syn

> <i_i_glide_lignum>
484

> <i_i_glide_rotatable_bonds>
13

> <r_i_docking_score>
-7.01076596818105

> <r_i_glide_ligand_efficiency>
-0.212447453581244

> <r_i_glide_ligand_efficiency_sa>
-0.681432499887823

> <r_i_glide_ligand_efficiency_ln>
-1.55915805152001

> <r_i_glide_gscore>
-7.01076596818105

> <r_i_glide_lipo>
-3.17579810478284

> <r_i_glide_hbond>
-0.0873615995296066

> <r_i_glide_metal>
0

> <r_i_glide_rewards>
-0.983369511104134

> <r_i_glide_evdw>
-55.5180397033691

> <r_i_glide_ecoul>
-5.83191585540771

> <r_i_glide_erotb>
0.905656162124924

> <r_i_glide_esite>
-0.0192035514097818

> <r_i_glide_emodel>
-82.8505069606046

> <r_i_glide_energy>
-61.3499555587769

> <r_i_glide_einternal>
9.3765115737915

> <i_i_glide_confnum>
67

> <i_i_glide_posenum>
230

> <r_i_glide_eff_state_penalty>
0

> <s_user_duplicate_titles>
CHEMBL1952_lig244,CHEMBL1952_lig244,624957

> <i_f3d_flags>
0

> <s_m_subgroup_title>
dock_pv

> <s_m_subgroupid>
dock_pv

> <b_m_subgroup_collapsed>
1

$$$$
CHEMBL1952_lig240
                    3D
 Schrodinger Suite 2021-1.
 64 66  0  0  1  0            999 V2000
   13.1183   17.9459   31.3744 N   0  0  0  0  0  0
   13.3843   17.9567   30.1267 C   0  0  0  0  0  0
   14.3434   17.1661   29.5189 N   0  0  0  0  0  0
   13.7921   17.1126   32.2734 C   0  0  0  0  0  0
   13.5493   17.0282   33.4765 O   0  0  0  0  0  0
   14.9031   16.2646   31.6685 C   0  0  0  0  0  0
   15.1381   16.3115   30.2913 C   0  0  0  0  0  0
   16.1600   15.5548   29.7271 C   0  0  0  0  0  0
   16.9858   14.7886   30.5535 C   0  0  0  0  0  0
   16.7841   14.7467   31.9373 C   0  0  0  0  0  0
   15.7027   15.4542   32.4797 C   0  0  0  0  0  0
   17.7480   13.9078   32.7928 C   0  0  0  0  0  0
   17.6825   14.1233   34.2637 N   0  0  0  0  0  0
   17.2335   13.0506   35.0423 C   0  0  0  0  0  0
   16.1935   13.1595   35.9696 C   0  0  0  0  0  0
   15.6240   12.0051   36.5053 C   0  0  0  0  0  0
   16.0776   10.7365   36.1070 C   0  0  0  0  0  0
   17.1909   10.6504   35.2484 C   0  0  0  0  0  0
   17.7935   11.8133   34.7910 C   0  0  0  0  0  0
   15.3336    9.4968   36.5395 C   0  0  0  0  0  0
   15.0774    8.5948   35.7400 O   0  0  0  0  0  0
   14.9839    9.4507   37.8371 N   0  0  0  0  0  0
   14.2313    8.3757   38.5008 C   0  0  1  0  0  0
   15.0989    7.0835   38.5768 C   0  0  0  0  0  0
   13.7239    8.8803   39.8708 C   0  0  0  0  0  0
   12.6652    8.1270   40.2879 O   0  0  0  0  0  0
   14.1959    9.8275   40.4683 O   0  0  0  0  0  0
   14.4534    5.8203   39.1868 C   0  0  0  0  0  0
   15.4177    4.6309   39.1518 C   0  0  0  0  0  0
   15.3518    3.9184   37.9896 O   0  0  0  0  0  0
   16.1852    4.3553   40.0726 O   0  0  0  0  0  0
   12.6214   18.9127   29.2423 C   0  0  0  0  0  0
   17.7911   15.4277   34.8958 C   0  0  0  0  0  0
   17.6101    9.4280   34.7910 O   0  0  0  0  0  0
   18.7720   16.3361   34.1666 C   0  0  0  0  0  0
   18.7887    9.2968   34.0030 C   0  0  0  0  0  0
   14.4938   17.2271   28.5256 H   0  0  0  0  0  0
   16.3383   15.5790   28.6633 H   0  0  0  0  0  0
   17.7951   14.2260   30.1158 H   0  0  0  0  0  0
   15.4635   15.3668   33.5269 H   0  0  0  0  0  0
   18.7776   14.0609   32.4620 H   0  0  0  0  0  0
   17.5267   12.8743   32.5261 H   0  0  0  0  0  0
   15.7653   14.1216   36.2080 H   0  0  0  0  0  0
   14.7743   12.1126   37.1644 H   0  0  0  0  0  0
   18.6319   11.7676   34.1124 H   0  0  0  0  0  0
   15.2122   10.2377   38.4278 H   0  0  0  0  0  0
   13.3576    8.1797   37.8750 H   0  0  0  0  0  0
   16.0271    7.3009   39.1107 H   0  0  0  0  0  0
   15.3918    6.8162   37.5612 H   0  0  0  0  0  0
   12.4297    7.4385   39.6641 H   0  0  0  0  0  0
   13.5297    5.5605   38.6679 H   0  0  0  0  0  0
   14.1956    5.9924   40.2325 H   0  0  0  0  0  0
   14.7035    4.2299   37.3510 H   0  0  0  0  0  0
   11.7984   19.3965   29.7709 H   0  0  0  0  0  0
   13.2774   19.6938   28.8585 H   0  0  0  0  0  0
   12.1937   18.3891   28.3941 H   0  0  0  0  0  0
   16.7867   15.8280   34.9337 H   0  0  0  0  0  0
   18.0958   15.3305   35.9374 H   0  0  0  0  0  0
   18.6762   17.3924   34.4007 H   0  0  0  0  0  0
   19.7919   16.0105   34.3617 H   0  0  0  0  0  0
   18.5919   16.2521   33.1073 H   0  0  0  0  0  0
   19.0028    8.2343   33.9104 H   0  0  0  0  0  0
   18.6512    9.7057   33.0008 H   0  0  0  0  0  0
   19.6575    9.7639   34.4709 H   0  0  0  0  0  0
  1  2  2  0  0  0
  1  4  1  0  0  0
  2  3  1  0  0  0
  2 32  1  0  0  0
  3  7  1  0  0  0
  3 37  1  0  0  0
  4  5  2  0  0  0
  4  6  1  0  0  0
  6 11  1  0  0  0
  6  7  2  0  0  0
  7  8  1  0  0  0
  8  9  2  0  0  0
  8 38  1  0  0  0
  9 10  1  0  0  0
  9 39  1  0  0  0
 10 11  2  0  0  0
 10 12  1  0  0  0
 11 40  1  0  0  0
 12 13  1  0  0  0
 12 41  1  0  0  0
 12 42  1  0  0  0
 13 14  1  0  0  0
 13 33  1  0  0  0
 14 19  1  0  0  0
 14 15  2  0  0  0
 15 16  1  0  0  0
 15 43  1  0  0  0
 16 17  2  0  0  0
 16 44  1  0  0  0
 17 18  1  0  0  0
 17 20  1  0  0  0
 18 19  2  0  0  0
 18 34  1  0  0  0
 19 45  1  0  0  0
 20 21  2  0  0  0
 20 22  1  0  0  0
 22 23  1  0  0  0
 22 46  1  0  0  0
 23 24  1  0  0  0
 23 25  1  0  0  0
 23 47  1  0  0  0
 24 28  1  0  0  0
 24 48  1  0  0  0
 24 49  1  0  0  0
 25 26  1  0  0  0
 25 27  2  0  0  0
 26 50  1  0  0  0
 28 29  1  0  0  0
 28 51  1  0  0  0
 28 52  1  0  0  0
 29 30  1  0  0  0
 29 31  2  0  0  0
 30 53  1  0  0  0
 32 54  1  0  0  0
 32 55  1  0  0  0
 32 56  1  0  0  0
 33 35  1  0  0  0
 33 57  1  0  0  0
 33 58  1  0  0  0
 34 36  1  0  0  0
 35 59  1  0  0  0
 35 60  1  0  0  0
 35 61  1  0  0  0
 36 62  1  0  0  0
 36 63  1  0  0  0
 36 64  1  0  0  0
M  END
> <s_m_entry_id>
41373

> <s_m_entry_name>
dock_pv.490

> <s_m_Source_Path>
/home/csk/Desktop/cluster/DUD-E-result/tysy

> <s_m_Source_File>
dock_pv.maegz

> <i_m_Source_File_Index>
490

> <chembl_id>
CHEMBL105435

> <chembl_pref_name>
None

> <i_lp_mmshare_version>
53161

> <r_lp_tautomer_probability>
0.116051

> <s_lp_Force_Field>
OPLS_2005

> <r_lp_Energy>
26.268305

> <b_lp_Chiralities_Consistent>
1

> <s_lp_Variant>
CHEMBL1952_lig240-2

> <s_i_glide_gridfile>
glide-grid_1syn

> <i_i_glide_lignum>
477

> <i_i_glide_rotatable_bonds>
14

> <r_i_docking_score>
-7.00911382795856

> <r_i_glide_ligand_efficiency>
-0.194697606332182

> <r_i_glide_ligand_efficiency_sa>
-0.64287733087487

> <r_i_glide_ligand_efficiency_ln>
-1.52919927288868

> <r_i_glide_gscore>
-7.00911382795856

> <r_i_glide_lipo>
-3.38644200836903

> <r_i_glide_hbond>
0

> <r_i_glide_metal>
0

> <r_i_glide_rewards>
-0.388333396454249

> <r_i_glide_evdw>
-55.6736030578613

> <r_i_glide_ecoul>
-8.51913070678711

> <r_i_glide_erotb>
0.827211335775851

> <r_i_glide_esite>
0

> <r_i_glide_emodel>
-82.6676685597789

> <r_i_glide_energy>
-64.1927337646484

> <r_i_glide_einternal>
10.7251453399658

> <i_i_glide_confnum>
3

> <i_i_glide_posenum>
278

> <r_i_glide_eff_state_penalty>
0

> <s_user_duplicate_titles>
CHEMBL1952_lig240,171700

> <i_f3d_flags>
0

> <s_m_subgroup_title>
dock_pv

> <s_m_subgroupid>
dock_pv

> <b_m_subgroup_collapsed>
1

$$$$
CHEMBL1952_lig434
                    3D
 Schrodinger Suite 2021-1.
 71 74  0  0  1  0            999 V2000
   16.9973   14.6709   34.5861 C   0  0  0  0  0  0
   17.7076   13.5142   34.7318 C   0  0  0  0  0  0
   15.6533   14.7949   35.0157 N   0  0  0  0  0  0
   19.0026   13.3323   34.3633 N   0  0  0  0  0  0
   17.7140   15.7669   33.9242 C   0  0  0  0  0  0
   18.9762   15.4718   33.5909 N   0  0  0  0  0  0
   14.5923   16.2280   33.0389 C   0  0  0  0  0  0
   13.7293   17.7230   31.4095 N   0  0  0  0  0  0
   19.6056   14.3021   33.7884 C   0  0  0  0  0  0
   13.7951   17.4208   32.7401 C   0  0  0  0  0  0
   14.7246   15.8497   34.5282 C   0  0  0  0  0  0
   14.2810   17.0678   30.3412 C   0  0  0  0  0  0
   15.0378   13.6156   35.7143 C   0  0  2  0  0  0
   17.1801   12.4229   35.3336 N   0  0  0  0  0  0
   14.5109    7.8560   38.7337 C   0  0  0  0  0  0
   15.1550   15.5867   31.9864 C   0  0  0  0  0  0
   15.0101   15.9702   30.6845 N   0  0  0  0  0  0
   13.8623    6.7818   38.2359 N   0  0  0  0  0  0
   15.4399    4.8152   38.5102 C   0  0  0  0  0  0
   14.0571   14.0173   36.8547 C   0  0  0  0  0  0
   12.9188   13.0923   37.0145 N   0  0  0  0  0  0
   14.0056    5.3778   38.6813 C   0  0  1  0  0  0
   16.1204   12.6411   36.2985 C   0  0  0  0  0  0
   11.7179    5.6851   41.8746 C   0  0  0  0  0  0
   17.3167   16.8782   33.5910 O   0  0  0  0  0  0
   14.0500    9.2178   38.2612 C   0  0  0  0  0  0
   13.2639   11.7975   37.4572 C   0  0  0  0  0  0
   13.2110   18.1047   33.5765 O   0  0  0  0  0  0
   14.1461   17.4334   29.1780 O   0  0  0  0  0  0
   15.7205    4.6089   37.1906 O   0  0  0  0  0  0
   15.3917    7.7708   39.5908 O   0  0  0  0  0  0
   11.7920    6.9432   42.3904 O   0  0  0  0  0  0
   16.1916    4.5721   39.4338 O   0  0  0  0  0  0
   20.9221   14.2280   33.3314 N   0  0  0  0  0  0
   11.4577    4.6889   42.5436 O   0  0  0  0  0  0
   14.1826   10.3101   39.1277 C   0  0  0  0  0  0
   13.4988    9.4286   36.9868 C   0  0  0  0  0  0
   13.7918   11.5856   38.7333 C   0  0  0  0  0  0
   13.1089   10.7111   36.5919 C   0  0  0  0  0  0
   13.5010    5.2249   40.1468 C   0  0  0  0  0  0
   12.0366    5.6501   40.3824 C   0  0  0  0  0  0
   11.8038   13.6587   37.7692 C   0  0  0  0  0  0
   19.4081   16.1886   33.0276 H   0  0  0  0  0  0
   13.1900   18.5448   31.1827 H   0  0  0  0  0  0
   13.7018   15.6050   34.8076 H   0  0  0  0  0  0
   14.9738   16.7555   35.0845 H   0  0  0  0  0  0
   14.4681   13.0765   34.9670 H   0  0  0  0  0  0
   17.8413   11.6916   35.5375 H   0  0  0  0  0  0
   15.7743   14.7077   32.0732 H   0  0  0  0  0  0
   15.4237   15.4560   29.9208 H   0  0  0  0  0  0
   13.1431    6.9450   37.5480 H   0  0  0  0  0  0
   13.6685   15.0167   36.6877 H   0  0  0  0  0  0
   14.6073   14.1091   37.7930 H   0  0  0  0  0  0
   13.3505    4.7731   38.0508 H   0  0  0  0  0  0
   15.7023   11.6768   36.5788 H   0  0  0  0  0  0
   16.5709   13.0702   37.1911 H   0  0  0  0  0  0
   14.9546    4.7056   36.6164 H   0  0  0  0  0  0
   11.6755    6.9276   43.3434 H   0  0  0  0  0  0
   21.2630   13.2668   33.2301 H   0  0  0  0  0  0
   21.1066   14.7137   32.4679 H   0  0  0  0  0  0
   14.5937   10.1800   40.1190 H   0  0  0  0  0  0
   13.3837    8.6161   36.2837 H   0  0  0  0  0  0
   13.9220   12.4144   39.4124 H   0  0  0  0  0  0
   12.7048   10.8682   35.6021 H   0  0  0  0  0  0
   14.1470    5.7885   40.8248 H   0  0  0  0  0  0
   13.5965    4.1817   40.4554 H   0  0  0  0  0  0
   11.8343    6.6350   39.9604 H   0  0  0  0  0  0
   11.3585    4.9528   39.8898 H   0  0  0  0  0  0
   10.9688   12.9575   37.8078 H   0  0  0  0  0  0
   12.0891   13.8948   38.7950 H   0  0  0  0  0  0
   11.4380   14.5678   37.2890 H   0  0  0  0  0  0
  1  2  2  0  0  0
  1  3  1  0  0  0
  1  5  1  0  0  0
  2  4  1  0  0  0
  2 14  1  0  0  0
  3 11  1  0  0  0
  3 13  1  0  0  0
  4  9  2  0  0  0
  5  6  1  0  0  0
  5 25  2  0  0  0
  6  9  1  0  0  0
  6 43  1  0  0  0
  7 11  1  0  0  0
  7 10  1  0  0  0
  7 16  2  0  0  0
  8 10  1  0  0  0
  8 12  1  0  0  0
  8 44  1  0  0  0
  9 34  1  0  0  0
 10 28  2  0  0  0
 11 45  1  0  0  0
 11 46  1  0  0  0
 12 17  1  0  0  0
 12 29  2  0  0  0
 13 20  1  0  0  0
 13 23  1  0  0  0
 13 47  1  0  0  0
 14 23  1  0  0  0
 14 48  1  0  0  0
 15 26  1  0  0  0
 15 18  1  0  0  0
 15 31  2  0  0  0
 16 17  1  0  0  0
 16 49  1  0  0  0
 17 50  1  0  0  0
 18 22  1  0  0  0
 18 51  1  0  0  0
 19 22  1  0  0  0
 19 30  1  0  0  0
 19 33  2  0  0  0
 20 21  1  0  0  0
 20 52  1  0  0  0
 20 53  1  0  0  0
 21 27  1  0  0  0
 21 42  1  0  0  0
 22 40  1  0  0  0
 22 54  1  0  0  0
 23 55  1  0  0  0
 23 56  1  0  0  0
 24 41  1  0  0  0
 24 32  1  0  0  0
 24 35  2  0  0  0
 26 37  1  0  0  0
 26 36  2  0  0  0
 27 38  2  0  0  0
 27 39  1  0  0  0
 30 57  1  0  0  0
 32 58  1  0  0  0
 34 59  1  0  0  0
 34 60  1  0  0  0
 36 38  1  0  0  0
 36 61  1  0  0  0
 37 39  2  0  0  0
 37 62  1  0  0  0
 38 63  1  0  0  0
 39 64  1  0  0  0
 40 41  1  0  0  0
 40 65  1  0  0  0
 40 66  1  0  0  0
 41 67  1  0  0  0
 41 68  1  0  0  0
 42 69  1  0  0  0
 42 70  1  0  0  0
 42 71  1  0  0  0
M  END
> <s_m_entry_id>
41375

> <s_m_entry_name>
dock_pv.492

> <s_m_Source_Path>
/home/csk/Desktop/cluster/DUD-E-result/tysy

> <s_m_Source_File>
dock_pv.maegz

> <i_m_Source_File_Index>
492

> <chembl_id>
CHEMBL1161432

> <chembl_pref_name>
None

> <i_lp_mmshare_version>
53161

> <r_lp_tautomer_probability>
0.982093049920908

> <s_lp_Force_Field>
OPLS_2005

> <r_lp_Energy>
38.260438

> <b_lp_Chiralities_Consistent>
1

> <s_lp_Variant>
CHEMBL1952_lig434-1

> <s_i_glide_gridfile>
glide-grid_1syn

> <i_i_glide_lignum>
847

> <i_i_glide_rotatable_bonds>
14

> <r_i_docking_score>
-6.9912356528367

> <r_i_glide_ligand_efficiency>
-0.166457991734207

> <r_i_glide_ligand_efficiency_sa>
-0.578612413801506

> <r_i_glide_ligand_efficiency_ln>
-1.47566973134988

> <r_i_glide_gscore>
-6.9912356528367

> <r_i_glide_lipo>
-2.58358932091407

> <r_i_glide_hbond>
-0.443488888691995

> <r_i_glide_metal>
0

> <r_i_glide_rewards>
0.310113760350595

> <r_i_glide_evdw>
-51.4799423217773

> <r_i_glide_ecoul>
-14.3807582855225

> <r_i_glide_erotb>
0.634408162210568

> <r_i_glide_esite>
-0.177568506874563

> <r_i_glide_emodel>
-80.1242265197829

> <r_i_glide_energy>
-65.8607006072998

> <r_i_glide_einternal>
17.6505451202393

> <i_i_glide_confnum>
49

> <i_i_glide_posenum>
165

> <r_i_glide_eff_state_penalty>
0

> <s_user_duplicate_titles>
CHEMBL1952_lig434

> <i_f3d_flags>
0

> <s_m_subgroup_title>
dock_pv

> <s_m_subgroupid>
dock_pv

> <b_m_subgroup_collapsed>
1

$$$$
CHEMBL1952_lig353
                    3D
 Schrodinger Suite 2021-1.
 58 61  0  0  1  0            999 V2000
   14.4364   11.0720   37.3815 C   0  0  0  0  0  0
   11.9993   11.1005   38.8501 S   0  0  1  0  0  0
   15.1388   16.1211   30.5123 C   0  0  0  0  0  0
   14.9681   16.3906   32.0030 C   0  0  0  0  0  0
   13.2714   11.7843   37.7209 C   0  0  0  0  0  0
   14.3559   16.9128   29.6604 N   0  0  0  0  0  0
   13.3911   18.1127   31.4435 N   0  0  0  0  0  0
   14.6707    9.6360   37.8691 C   0  0  0  0  0  0
   14.0843   17.3944   32.4206 C   0  0  0  0  0  0
   13.5707   17.8183   30.1068 C   0  0  0  0  0  0
   15.3922   11.6969   36.5630 C   0  0  0  0  0  0
   12.2389   12.2899   40.2412 C   0  0  0  0  0  0
   15.2220   13.0044   36.0728 C   0  0  0  0  0  0
   16.2139   13.6592   35.2839 N   0  0  0  0  0  0
   13.0620   13.0602   37.2043 C   0  0  0  0  0  0
   18.3826   13.5803   34.0193 C   0  0  0  0  0  0
   19.1132   14.1662   33.2338 C   0  0  0  0  0  0
   15.6754   15.6465   32.9597 C   0  0  0  0  0  0
   10.6480   11.3805   38.1926 O   0  0  0  0  0  0
   15.9343   15.2623   30.1388 O   0  0  0  0  0  0
   16.2699   15.1261   35.4019 C   0  0  0  0  0  0
   15.4812   15.8883   34.3275 C   0  0  0  0  0  0
   14.0181   13.6540   36.3910 C   0  0  0  0  0  0
   11.3886   13.3823   40.5172 C   0  0  0  0  0  0
   13.9020   17.6571   33.7728 C   0  0  0  0  0  0
   14.7681    9.6054   39.1991 F   0  0  0  0  0  0
   13.6594    8.8514   37.4933 F   0  0  0  0  0  0
   15.7919    9.1089   37.3745 F   0  0  0  0  0  0
   17.4688   12.9329   34.9848 C   0  0  0  0  0  0
   14.5918   16.8995   34.7188 C   0  0  0  0  0  0
   12.7727   18.6396   29.1184 C   0  0  0  0  0  0
   13.3510   12.0593   41.0569 C   0  0  0  0  0  0
   10.1249   13.6733   39.7186 C   0  0  0  0  0  0
   11.6933   14.2273   41.5916 C   0  0  0  0  0  0
   13.6368   12.9022   42.1300 C   0  0  0  0  0  0
   12.8078   13.9879   42.3937 C   0  0  0  0  0  0
   16.2938   11.1543   36.3293 H   0  0  0  0  0  0
   12.1576   13.6042   37.4311 H   0  0  0  0  0  0
   19.7618   14.6242   32.5206 H   0  0  0  0  0  0
   16.3579   14.8691   32.6472 H   0  0  0  0  0  0
   12.7637   18.8523   31.7162 H   0  0  0  0  0  0
   17.3101   15.4360   35.3683 H   0  0  0  0  0  0
   15.9338   15.4277   36.3911 H   0  0  0  0  0  0
   13.8001   14.6385   36.0121 H   0  0  0  0  0  0
   13.2344   18.4437   34.0926 H   0  0  0  0  0  0
   18.0221   12.7421   35.9062 H   0  0  0  0  0  0
   17.2354   11.9661   34.5393 H   0  0  0  0  0  0
   14.4416   17.1102   35.7648 H   0  0  0  0  0  0
   12.9914   18.3582   28.0865 H   0  0  0  0  0  0
   11.7013   18.5090   29.2739 H   0  0  0  0  0  0
   12.9969   19.7006   29.2230 H   0  0  0  0  0  0
   14.0049   11.2222   40.8636 H   0  0  0  0  0  0
    9.6048   14.5650   40.0669 H   0  0  0  0  0  0
   10.3505   13.8243   38.6651 H   0  0  0  0  0  0
    9.4319   12.8353   39.7861 H   0  0  0  0  0  0
   11.0517   15.0668   41.8213 H   0  0  0  0  0  0
   14.4975   12.7082   42.7542 H   0  0  0  0  0  0
   13.0156   14.6286   43.2366 H   0  0  0  0  0  0
  1  5  2  0  0  0
  1  8  1  0  0  0
  1 11  1  0  0  0
  2  5  1  0  0  0
  2 12  1  0  0  0
  2 19  2  0  0  0
  3 20  2  0  0  0
  3  4  1  0  0  0
  3  6  1  0  0  0
  4 18  2  0  0  0
  4  9  1  0  0  0
  5 15  1  0  0  0
  6 10  2  0  0  0
  7  9  1  0  0  0
  7 41  1  0  0  0
  7 10  1  0  0  0
  8 26  1  0  0  0
  8 27  1  0  0  0
  8 28  1  0  0  0
  9 25  2  0  0  0
 10 31  1  0  0  0
 11 13  2  0  0  0
 11 37  1  0  0  0
 12 24  2  0  0  0
 12 32  1  0  0  0
 13 14  1  0  0  0
 13 23  1  0  0  0
 14 21  1  0  0  0
 14 29  1  0  0  0
 15 23  2  0  0  0
 15 38  1  0  0  0
 16 29  1  0  0  0
 16 17  3  0  0  0
 17 39  1  0  0  0
 18 40  1  0  0  0
 18 22  1  0  0  0
 21 42  1  0  0  0
 21 43  1  0  0  0
 21 22  1  0  0  0
 22 30  2  0  0  0
 23 44  1  0  0  0
 24 33  1  0  0  0
 24 34  1  0  0  0
 25 30  1  0  0  0
 25 45  1  0  0  0
 29 46  1  0  0  0
 29 47  1  0  0  0
 30 48  1  0  0  0
 31 49  1  0  0  0
 31 50  1  0  0  0
 31 51  1  0  0  0
 32 35  2  0  0  0
 32 52  1  0  0  0
 33 53  1  0  0  0
 33 54  1  0  0  0
 33 55  1  0  0  0
 34 36  2  0  0  0
 34 56  1  0  0  0
 35 36  1  0  0  0
 35 57  1  0  0  0
 36 58  1  0  0  0
M  END
> <s_m_entry_id>
41376

> <s_m_entry_name>
dock_pv.493

> <s_m_Source_Path>
/home/csk/Desktop/cluster/DUD-E-result/tysy

> <s_m_Source_File>
dock_pv.maegz

> <i_m_Source_File_Index>
493

> <chembl_id>
CHEMBL157702

> <chembl_pref_name>
None

> <i_lp_mmshare_version>
53161

> <r_lp_tautomer_probability>
0.116051

> <s_lp_Force_Field>
OPLS_2005

> <r_lp_Energy>
24.565072

> <b_lp_Chiralities_Consistent>
1

> <s_lp_Variant>
CHEMBL1952_lig353-3

> <s_i_glide_gridfile>
glide-grid_1syn

> <i_i_glide_lignum>
657

> <i_i_glide_rotatable_bonds>
8

> <r_i_docking_score>
-6.98866999417851

> <r_i_glide_ligand_efficiency>
-0.194129722060514

> <r_i_glide_ligand_efficiency_sa>
-0.641002218326271

> <r_i_glide_ligand_efficiency_ln>
-1.52473898068643

> <r_i_glide_gscore>
-6.98866999417851

> <r_i_glide_lipo>
-3.2941375185231

> <r_i_glide_hbond>
0

> <r_i_glide_metal>
0

> <r_i_glide_rewards>
-0.74187445574318

> <r_i_glide_evdw>
-58.0224418640137

> <r_i_glide_ecoul>
-3.70529937744141

> <r_i_glide_erotb>
0.55217642205831

> <r_i_glide_esite>
-0.0479174421536452

> <r_i_glide_emodel>
-85.1273364311947

> <r_i_glide_energy>
-61.7277412414551

> <r_i_glide_einternal>
4.83562421798706

> <i_i_glide_confnum>
6

> <i_i_glide_posenum>
281

> <r_i_glide_eff_state_penalty>
0

> <s_user_duplicate_titles>
CHEMBL1952_lig353,267045

> <i_f3d_flags>
0

> <s_m_subgroup_title>
dock_pv

> <s_m_subgroupid>
dock_pv

> <b_m_subgroup_collapsed>
1

$$$$
CHEMBL1952_lig102
                    3D
 Schrodinger Suite 2021-1.
 52 54  0  0  1  0            999 V2000
   13.9057    6.5993   39.2151 N   0  0  0  0  0  0
   13.6062    9.5829   37.5563 C   0  0  1  0  0  0
   13.0225    8.1761   37.3947 C   0  0  2  0  0  0
   12.9559    7.6509   38.8486 C   0  0  2  0  0  0
   13.7272    7.2222   36.3979 C   0  0  0  0  0  0
   14.3189    6.1664   36.9837 N   0  0  0  0  0  0
   14.4857    5.9227   38.3036 C   0  0  0  0  0  0
   13.0496    8.8128   39.7027 N   0  0  0  0  0  0
   13.2895    9.8655   39.0204 C   0  0  0  0  0  0
   16.7103   15.0103   34.5207 C   0  0  0  0  0  0
   15.6059   15.6112   34.0541 N   0  0  0  0  0  0
   15.4114    9.7475   37.2576 S   0  0  0  0  0  0
   14.3853   17.6937   34.1350 C   0  0  0  0  0  0
   15.4478   16.8838   33.3607 C   0  0  2  0  0  0
   13.7941    7.4283   35.1907 O   0  0  0  0  0  0
   16.4220   13.7288   35.2622 C   0  0  0  0  0  0
   14.1918   17.4212   29.6260 C   0  0  0  0  0  0
   17.8560   15.4282   34.3599 O   0  0  0  0  0  0
   13.4972   17.1915   34.7907 O   0  0  0  0  0  0
   15.3075    4.8398   38.6617 N   0  0  0  0  0  0
   14.0479   16.2823   29.1910 O   0  0  0  0  0  0
   15.0343   16.5802   31.8912 C   0  0  0  0  0  0
   15.7882   11.3013   36.4971 C   0  0  0  0  0  0
   17.3119   12.6503   35.1897 C   0  0  0  0  0  0
   15.2312   13.5861   35.9934 C   0  0  0  0  0  0
   14.3804   17.7397   31.1059 C   0  0  0  0  0  0
   14.5918   19.0280   33.9617 O   0  0  0  0  0  0
   14.1885   18.5451   28.8526 O   0  0  0  0  0  0
   14.9117   12.3782   36.5971 C   0  0  0  0  0  0
   16.9928   11.4400   35.8058 C   0  0  0  0  0  0
   13.2542   11.2689   39.5867 C   0  0  0  0  0  0
   12.0042    8.2501   37.0085 H   0  0  0  0  0  0
   11.9647    7.2260   39.0280 H   0  0  0  0  0  0
   14.7264    5.5105   36.3365 H   0  0  0  0  0  0
   13.0351   11.2640   40.6545 H   0  0  0  0  0  0
   14.7270   15.1653   34.2663 H   0  0  0  0  0  0
   16.3913   17.4346   33.3805 H   0  0  0  0  0  0
   15.4392    4.7216   39.6542 H   0  0  0  0  0  0
   16.1948    4.7764   38.1888 H   0  0  0  0  0  0
   14.3419   15.7358   31.8657 H   0  0  0  0  0  0
   15.9198   16.2386   31.3507 H   0  0  0  0  0  0
   18.2387   12.7337   34.6371 H   0  0  0  0  0  0
   14.5327   14.4052   36.0967 H   0  0  0  0  0  0
   13.4012   17.9846   31.5183 H   0  0  0  0  0  0
   14.9920   18.6280   31.2116 H   0  0  0  0  0  0
   13.9108   19.5733   34.3912 H   0  0  0  0  0  0
   14.3324   19.3466   29.3682 H   0  0  0  0  0  0
   13.9841   12.3019   37.1387 H   0  0  0  0  0  0
   17.6811   10.6099   35.7340 H   0  0  0  0  0  0
   12.4876   11.8640   39.0906 H   0  0  0  0  0  0
   13.0890   10.2732   36.8902 H   0  0  0  0  0  0
   14.2063   11.7728   39.4456 H   0  0  0  0  0  0
  1  4  1  0  0  0
  1  7  2  0  0  0
  2  3  1  0  0  0
  2 12  1  0  0  0
  2 51  1  0  0  0
  2  9  1  0  0  0
  3  4  1  0  0  0
  3  5  1  0  0  0
  3 32  1  0  0  0
  4 33  1  0  0  0
  4  8  1  0  0  0
  5  6  1  0  0  0
  5 15  2  0  0  0
  6  7  1  0  0  0
  6 34  1  0  0  0
  7 20  1  0  0  0
  8  9  2  0  0  0
  9 31  1  0  0  0
 10 16  1  0  0  0
 10 11  1  0  0  0
 10 18  2  0  0  0
 11 14  1  0  0  0
 11 36  1  0  0  0
 12 23  1  0  0  0
 13 14  1  0  0  0
 13 19  2  0  0  0
 13 27  1  0  0  0
 14 22  1  0  0  0
 14 37  1  0  0  0
 16 24  1  0  0  0
 16 25  2  0  0  0
 17 26  1  0  0  0
 17 21  2  0  0  0
 17 28  1  0  0  0
 20 38  1  0  0  0
 20 39  1  0  0  0
 22 26  1  0  0  0
 22 40  1  0  0  0
 22 41  1  0  0  0
 23 29  2  0  0  0
 23 30  1  0  0  0
 24 30  2  0  0  0
 24 42  1  0  0  0
 25 29  1  0  0  0
 25 43  1  0  0  0
 26 44  1  0  0  0
 26 45  1  0  0  0
 27 46  1  0  0  0
 28 47  1  0  0  0
 29 48  1  0  0  0
 30 49  1  0  0  0
 31 50  1  0  0  0
 31 52  1  0  0  0
 31 35  1  0  0  0
M  END
> <s_m_entry_id>
41377

> <s_m_entry_name>
dock_pv.494

> <s_m_Source_Path>
/home/csk/Desktop/cluster/DUD-E-result/tysy

> <s_m_Source_File>
dock_pv.maegz

> <i_m_Source_File_Index>
494

> <chembl_id>
CHEMBL336487

> <chembl_pref_name>
None

> <i_lp_mmshare_version>
53161

> <r_lp_tautomer_probability>
0.384609230769231

> <s_lp_Force_Field>
OPLS_2005

> <r_lp_Energy>
32.366204

> <b_lp_Chiralities_Consistent>
1

> <s_lp_Variant>
CHEMBL1952_lig102-21

> <s_i_glide_gridfile>
glide-grid_1syn

> <i_i_glide_lignum>
210

> <i_i_glide_rotatable_bonds>
11

> <r_i_docking_score>
-6.98718096971699

> <r_i_glide_ligand_efficiency>
-0.225392934507

> <r_i_glide_ligand_efficiency_sa>
-0.708045002835536

> <r_i_glide_ligand_efficiency_ln>
-1.5758234400517

> <r_i_glide_gscore>
-6.98718096971699

> <r_i_glide_lipo>
-2.11796057928557

> <r_i_glide_hbond>
-0.316219719074035

> <r_i_glide_metal>
0

> <r_i_glide_rewards>
-1.43510901828862

> <r_i_glide_evdw>
-47.7502021789551

> <r_i_glide_ecoul>
-10.8653564453125

> <r_i_glide_erotb>
0.900101540785158

> <r_i_glide_esite>
-0.000679618109291495

> <r_i_glide_emodel>
-79.027458503701

> <r_i_glide_energy>
-58.6155586242676

> <r_i_glide_einternal>
6.9463963508606

> <i_i_glide_confnum>
20

> <i_i_glide_posenum>
348

> <r_i_glide_eff_state_penalty>
0

> <s_user_duplicate_titles>
CHEMBL1952_lig102

> <i_f3d_flags>
0

> <s_m_subgroup_title>
dock_pv

> <s_m_subgroupid>
dock_pv

> <b_m_subgroup_collapsed>
1

$$$$
CHEMBL1952_lig250
                    3D
 Schrodinger Suite 2021-1.
 55 57  0  0  1  0            999 V2000
   16.6035   11.4239   35.9807 C   0  0  0  0  0  0
   15.4498   10.7876   36.5720 C   0  0  0  0  0  0
   14.4203   11.4088   36.8366 O   0  0  0  0  0  0
   15.6063    9.4628   36.7623 N   0  0  0  0  0  0
   14.6109    8.4568   37.1772 C   0  0  1  0  0  0
   13.6746    8.9280   38.3365 C   0  0  0  0  0  0
   13.8672    7.8910   35.9405 C   0  0  0  0  0  0
   13.0012    6.9066   36.3175 O   0  0  0  0  0  0
   14.0890    8.2272   34.7924 O   0  0  0  0  0  0
   14.4183    9.4350   39.5934 C   0  0  0  0  0  0
   13.4905   10.0057   40.6679 C   0  0  0  0  0  0
   14.1913   10.6282   41.6559 O   0  0  0  0  0  0
   12.2661    9.9039   40.6721 O   0  0  0  0  0  0
   13.6708   18.3562   32.5871 N   0  0  0  0  0  0
   13.3851   18.2280   31.3496 C   0  0  0  0  0  0
   13.9978   17.3375   30.4909 N   0  0  0  0  0  0
   14.6689   17.5970   33.2067 C   0  0  0  0  0  0
   14.9893   17.6825   34.3900 O   0  0  0  0  0  0
   15.3904   16.6035   32.3046 C   0  0  0  0  0  0
   15.0117   16.4980   30.9601 C   0  0  0  0  0  0
   15.6433   15.5926   30.1167 C   0  0  0  0  0  0
   16.6636   14.7846   30.6188 C   0  0  0  0  0  0
   17.0683   14.8796   31.9550 C   0  0  0  0  0  0
   16.4242   15.7966   32.8018 C   0  0  0  0  0  0
   18.1883   13.9425   32.4219 C   0  0  0  0  0  0
   18.4689   13.9742   33.8592 N   0  0  0  0  0  0
   12.3044   19.1077   30.7630 C   0  0  0  0  0  0
   18.0384   12.9630   34.6737 C   0  0  0  0  0  0
   16.5765   13.1255   35.5906 S   0  0  0  0  0  0
   17.8179   10.8509   35.5829 C   0  0  0  0  0  0
   18.6152   11.7164   34.8373 C   0  0  0  0  0  0
   19.4609   14.9468   34.2922 C   0  0  0  0  0  0
   20.7671   14.3195   34.5691 C   0  0  0  0  0  0
   21.7926   13.8300   34.7910 N   0  0  0  0  0  0
   16.4554    9.0696   36.3923 H   0  0  0  0  0  0
   15.2007    7.6229   37.5595 H   0  0  0  0  0  0
   12.9923    9.7019   37.9797 H   0  0  0  0  0  0
   13.0293    8.1064   38.6503 H   0  0  0  0  0  0
   12.9676    6.7636   37.2634 H   0  0  0  0  0  0
   15.0109    8.6322   40.0318 H   0  0  0  0  0  0
   15.1143   10.2268   39.3211 H   0  0  0  0  0  0
   13.6134   10.9773   42.3352 H   0  0  0  0  0  0
   13.7265   17.3042   29.5230 H   0  0  0  0  0  0
   15.3488   15.5070   29.0821 H   0  0  0  0  0  0
   17.1431   14.0702   29.9662 H   0  0  0  0  0  0
   16.7165   15.8747   33.8402 H   0  0  0  0  0  0
   17.9144   12.9249   32.1343 H   0  0  0  0  0  0
   19.1040   14.1562   31.8667 H   0  0  0  0  0  0
   11.7983   19.6989   31.5277 H   0  0  0  0  0  0
   12.7228   19.8054   30.0386 H   0  0  0  0  0  0
   11.5423   18.5119   30.2603 H   0  0  0  0  0  0
   18.1056    9.8277   35.7575 H   0  0  0  0  0  0
   19.5560   11.4285   34.3911 H   0  0  0  0  0  0
   19.6031   15.7229   33.5425 H   0  0  0  0  0  0
   19.1122   15.4515   35.1909 H   0  0  0  0  0  0
  1  2  1  0  0  0
  1 29  1  0  0  0
  1 30  2  0  0  0
  2  3  2  0  0  0
  2  4  1  0  0  0
  4  5  1  0  0  0
  4 35  1  0  0  0
  5  6  1  0  0  0
  5  7  1  0  0  0
  5 36  1  0  0  0
  6 10  1  0  0  0
  6 37  1  0  0  0
  6 38  1  0  0  0
  7  9  2  0  0  0
  7  8  1  0  0  0
  8 39  1  0  0  0
 10 11  1  0  0  0
 10 40  1  0  0  0
 10 41  1  0  0  0
 11 12  1  0  0  0
 11 13  2  0  0  0
 12 42  1  0  0  0
 14 15  2  0  0  0
 14 17  1  0  0  0
 15 16  1  0  0  0
 15 27  1  0  0  0
 16 20  1  0  0  0
 16 43  1  0  0  0
 17 18  2  0  0  0
 17 19  1  0  0  0
 19 24  1  0  0  0
 19 20  2  0  0  0
 20 21  1  0  0  0
 21 22  2  0  0  0
 21 44  1  0  0  0
 22 23  1  0  0  0
 22 45  1  0  0  0
 23 24  2  0  0  0
 23 25  1  0  0  0
 24 46  1  0  0  0
 25 26  1  0  0  0
 25 47  1  0  0  0
 25 48  1  0  0  0
 26 28  1  0  0  0
 26 32  1  0  0  0
 27 49  1  0  0  0
 27 50  1  0  0  0
 27 51  1  0  0  0
 28 29  1  0  0  0
 28 31  2  0  0  0
 30 31  1  0  0  0
 30 52  1  0  0  0
 31 53  1  0  0  0
 32 33  1  0  0  0
 32 54  1  0  0  0
 32 55  1  0  0  0
 33 34  3  0  0  0
M  END
> <s_m_entry_id>
41379

> <s_m_entry_name>
dock_pv.496

> <s_m_Source_Path>
/home/csk/Desktop/cluster/DUD-E-result/tysy

> <s_m_Source_File>
dock_pv.maegz

> <i_m_Source_File_Index>
496

> <chembl_id>
CHEMBL1095594

> <chembl_pref_name>
None

> <i_lp_mmshare_version>
53161

> <r_lp_tautomer_probability>
0.116051

> <s_lp_Force_Field>
OPLS_2005

> <r_lp_Energy>
11.853697

> <b_lp_Chiralities_Consistent>
1

> <s_lp_Variant>
CHEMBL1952_lig250-2

> <s_i_glide_gridfile>
glide-grid_1syn

> <i_i_glide_lignum>
497

> <i_i_glide_rotatable_bonds>
13

> <r_i_docking_score>
-6.96703614680487

> <r_i_glide_ligand_efficiency>
-0.204912827847202

> <r_i_glide_ligand_efficiency_sa>
-0.663838014546626

> <r_i_glide_ligand_efficiency_ln>
-1.53921370357384

> <r_i_glide_gscore>
-6.96703614680487

> <r_i_glide_lipo>
-3.0304936179392

> <r_i_glide_hbond>
-0.339620699553884

> <r_i_glide_metal>
0

> <r_i_glide_rewards>
-0.90453616044942

> <r_i_glide_evdw>
-60.0875473022461

> <r_i_glide_ecoul>
-2.90995693206787

> <r_i_glide_erotb>
0.868424295317937

> <r_i_glide_esite>
-0.119939059257822

> <r_i_glide_emodel>
-78.1550706940027

> <r_i_glide_energy>
-62.997504234314

> <r_i_glide_einternal>
10.6666355133057

> <i_i_glide_confnum>
108

> <i_i_glide_posenum>
333

> <r_i_glide_eff_state_penalty>
0

> <s_user_duplicate_titles>
CHEMBL1952_lig250

> <i_f3d_flags>
0

> <s_m_subgroup_title>
dock_pv

> <s_m_subgroupid>
dock_pv

> <b_m_subgroup_collapsed>
1

$$$$
CHEMBL1952_lig309 
                    3D
 Schrodinger Suite 2021-1.
 67 70  0  0  1  0            999 V2000
   10.8710    6.9724   43.7034 N   0  0  0  0  0  0
   10.3937    5.8014   43.1858 C   0  0  0  0  0  0
   10.4156    5.5744   41.9256 N   0  0  0  0  0  0
   11.3920    8.0160   43.0151 C   0  0  0  0  0  0
   11.4176    7.7714   41.5245 C   0  0  0  0  0  0
   10.9296    6.5497   41.0545 C   0  0  0  0  0  0
   10.9527    6.2735   39.6917 C   0  0  0  0  0  0
   11.4654    7.2102   38.7879 C   0  0  0  0  0  0
   11.9573    8.4425   39.2649 C   0  0  0  0  0  0
   11.9273    8.7211   40.6376 C   0  0  0  0  0  0
    9.8689    4.7561   44.1405 C   0  0  0  0  0  0
   11.7920    9.0273   43.5913 O   0  0  0  0  0  0
   11.5106    6.8520   37.3090 C   0  0  0  0  0  0
   12.5443    9.5060   38.3219 C   0  0  0  0  0  0
   14.0166    9.4801   38.1198 N   0  0  0  0  0  0
   14.6080   10.5715   37.4238 C   0  0  0  0  0  0
   14.7839    8.4976   38.6629 C   0  0  0  0  0  0
   15.7335   10.3876   36.6002 C   0  0  0  0  0  0
   16.3445   11.4612   35.9535 C   0  0  0  0  0  0
   15.8425   12.7616   36.1006 C   0  0  0  0  0  0
   14.6999   12.9531   36.8909 C   0  0  0  0  0  0
   14.1022   11.8762   37.5405 C   0  0  0  0  0  0
   14.1482   14.1794   37.0514 F   0  0  0  0  0  0
   16.5122   13.9372   35.4346 C   0  0  0  0  0  0
   17.0112   13.7219   34.2047 N   0  0  0  0  0  0
   16.5555   15.0280   35.9909 O   0  0  0  0  0  0
   17.6848   14.6897   33.3275 C   0  0  1  0  0  0
   16.8849   16.0119   33.0777 C   0  0  0  0  0  0
   19.0755   14.9947   33.9129 C   0  0  0  0  0  0
   20.0530   14.2281   33.3454 O   0  0  0  0  0  0
   19.2529   15.8280   34.7706 O   0  0  0  0  0  0
   15.4443   15.8913   32.5423 C   0  0  0  0  0  0
   15.3617   15.7804   31.0262 C   0  0  0  0  0  0
   15.9839   14.8576   30.3332 N   0  0  0  0  0  0
   15.6389   15.0779   29.0079 N   0  0  0  0  0  0
   14.8215   16.1820   28.9089 N   0  0  0  0  0  0
   14.6487   16.6018   30.1679 N   0  0  0  0  0  0
   13.8612   17.8167   30.4136 C   0  0  0  0  0  0
   12.3798   17.7578   30.0085 C   0  0  0  0  0  0
   11.8072   16.7525   29.5914 O   0  0  0  0  0  0
   11.7922   18.9728   30.1936 O   0  0  0  0  0  0
   15.4009    7.5695   39.1614 C   0  0  0  0  0  0
   10.8809    7.0940   44.7016 H   0  0  0  0  0  0
   10.5772    5.3231   39.3444 H   0  0  0  0  0  0
   12.3186    9.6618   41.0027 H   0  0  0  0  0  0
   10.6263    3.9940   44.3265 H   0  0  0  0  0  0
    9.5792    5.1873   45.1003 H   0  0  0  0  0  0
    8.9901    4.2592   43.7270 H   0  0  0  0  0  0
   10.7788    7.4327   36.7490 H   0  0  0  0  0  0
   12.4955    7.0665   36.8958 H   0  0  0  0  0  0
   11.3237    5.7916   37.1398 H   0  0  0  0  0  0
   12.0633    9.4228   37.3468 H   0  0  0  0  0  0
   12.2228   10.4606   38.7327 H   0  0  0  0  0  0
   16.1525    9.4024   36.4596 H   0  0  0  0  0  0
   17.2262   11.2699   35.3576 H   0  0  0  0  0  0
   13.2501   12.1006   38.1588 H   0  0  0  0  0  0
   16.9319   12.7917   33.8230 H   0  0  0  0  0  0
   17.8143   14.2024   32.3602 H   0  0  0  0  0  0
   16.8420   16.6015   33.9916 H   0  0  0  0  0  0
   17.4337   16.6293   32.3809 H   0  0  0  0  0  0
   19.7863   13.5648   32.7001 H   0  0  0  0  0  0
   14.9901   15.0283   33.0136 H   0  0  0  0  0  0
   14.8697   16.7428   32.9048 H   0  0  0  0  0  0
   13.9245   18.0856   31.4659 H   0  0  0  0  0  0
   14.3295   18.6280   29.8558 H   0  0  0  0  0  0
   10.8430   19.0271   29.9918 H   0  0  0  0  0  0
   15.9174    6.7417   39.5904 H   0  0  0  0  0  0
  1  2  1  0  0  0
  1  4  1  0  0  0
  1 43  1  0  0  0
  2  3  2  0  0  0
  2 11  1  0  0  0
  3  6  1  0  0  0
  4  5  1  0  0  0
  4 12  2  0  0  0
  5  6  2  0  0  0
  5 10  1  0  0  0
  6  7  1  0  0  0
  7  8  2  0  0  0
  7 44  1  0  0  0
  8  9  1  0  0  0
  8 13  1  0  0  0
  9 10  2  0  0  0
  9 14  1  0  0  0
 10 45  1  0  0  0
 11 46  1  0  0  0
 11 47  1  0  0  0
 11 48  1  0  0  0
 13 49  1  0  0  0
 13 50  1  0  0  0
 13 51  1  0  0  0
 14 15  1  0  0  0
 14 52  1  0  0  0
 14 53  1  0  0  0
 15 16  1  0  0  0
 15 17  1  0  0  0
 16 18  2  0  0  0
 16 22  1  0  0  0
 17 42  3  0  0  0
 18 19  1  0  0  0
 18 54  1  0  0  0
 19 20  2  0  0  0
 19 55  1  0  0  0
 20 21  1  0  0  0
 20 24  1  0  0  0
 21 22  2  0  0  0
 21 23  1  0  0  0
 22 56  1  0  0  0
 24 25  1  0  0  0
 24 26  2  0  0  0
 25 27  1  0  0  0
 25 57  1  0  0  0
 27 28  1  0  0  0
 27 29  1  0  0  0
 27 58  1  0  0  0
 28 32  1  0  0  0
 28 59  1  0  0  0
 28 60  1  0  0  0
 29 30  1  0  0  0
 29 31  2  0  0  0
 30 61  1  0  0  0
 32 33  1  0  0  0
 32 62  1  0  0  0
 32 63  1  0  0  0
 33 34  2  0  0  0
 33 37  1  0  0  0
 34 35  1  0  0  0
 35 36  2  0  0  0
 36 37  1  0  0  0
 37 38  1  0  0  0
 38 39  1  0  0  0
 38 64  1  0  0  0
 38 65  1  0  0  0
 39 40  2  0  0  0
 39 41  1  0  0  0
 41 66  1  0  0  0
 42 67  1  0  0  0
M  END
> <s_m_entry_id>
41380

> <s_m_entry_name>
dock_pv.497

> <s_m_Source_Path>
/home/csk/Desktop/cluster/DUD-E-result/tysy

> <s_m_Source_File>
dock_pv.maegz

> <i_m_Source_File_Index>
497

> <chembl_id>
CHEMBL4531593

> <chembl_pref_name>
None

> <i_lp_mmshare_version>
53161

> <r_lp_tautomer_probability>
0.883938

> <s_lp_Force_Field>
OPLS_2005

> <r_lp_Energy>
30.767526

> <b_lp_Chiralities_Consistent>
1

> <s_lp_Variant>
CHEMBL1952_lig309 -1

> <s_i_glide_gridfile>
glide-grid_1syn

> <i_i_glide_lignum>
579

> <i_i_glide_rotatable_bonds>
15

> <r_i_docking_score>
-6.96662939348628

> <r_i_glide_ligand_efficiency>
-0.16587212841634

> <r_i_glide_ligand_efficiency_sa>
-0.576575937300875

> <r_i_glide_ligand_efficiency_ln>
-1.47047598393122

> <r_i_glide_gscore>
-6.96662939348628

> <r_i_glide_lipo>
-1.83627319366427

> <r_i_glide_hbond>
-0.14322986766361

> <r_i_glide_metal>
0

> <r_i_glide_rewards>
-1.6345306706051

> <r_i_glide_evdw>
-47.3413352966309

> <r_i_glide_ecoul>
-11.2985982894897

> <r_i_glide_erotb>
0.720419271332536

> <r_i_glide_esite>
-0.0111584246308362

> <r_i_glide_emodel>
-78.9913581053084

> <r_i_glide_energy>
-58.6399335861206

> <r_i_glide_einternal>
9.73776626586914

> <i_i_glide_confnum>
3

> <i_i_glide_posenum>
17

> <r_i_glide_eff_state_penalty>
0

> <s_user_duplicate_titles>
CHEMBL1952_lig309 

> <i_f3d_flags>
0

> <s_m_subgroup_title>
dock_pv

> <s_m_subgroupid>
dock_pv

> <b_m_subgroup_collapsed>
1

$$$$
CHEMBL1952_lig40
                    3D
 Schrodinger Suite 2021-1.
 25 27  0  0  1  0            999 V2000
   16.1396   15.1930   30.4822 C   0  0  0  0  0  0
   15.4388   16.2090   31.2445 C   0  0  0  0  0  0
   17.1136   14.4334   31.0256 N   0  0  0  0  0  0
   17.3964   14.6133   32.3234 C   0  0  0  0  0  0
   16.7765   15.4648   33.1637 N   0  0  0  0  0  0
   15.7968   16.2483   32.6324 C   0  0  0  0  0  0
   14.4595   17.1455   30.7598 C   0  0  0  0  0  0
   13.7823   18.0111   31.6876 C   0  0  0  0  0  0
   14.1301   17.9601   33.0573 C   0  0  0  0  0  0
   15.7922   14.9377   29.1916 O   0  0  0  0  0  0
   15.1287   17.1165   33.5134 C   0  0  0  0  0  0
   12.7849   18.9200   31.2144 C   0  0  0  0  0  0
   18.4137   13.8283   32.8396 N   0  0  0  0  0  0
   11.7917   20.0505   32.3908 Br  0  0  0  0  0  0
   14.1385   17.3049   29.3733 C   0  0  0  0  0  0
   13.1971   18.2280   28.9436 C   0  0  0  0  0  0
   12.5174   19.0141   29.8554 C   0  0  0  0  0  0
   13.6352   18.6116   33.7653 H   0  0  0  0  0  0
   16.3299   14.2183   28.8521 H   0  0  0  0  0  0
   15.3931   17.1173   34.5617 H   0  0  0  0  0  0
   18.7051   13.9623   33.7930 H   0  0  0  0  0  0
   18.9382   13.2305   32.2086 H   0  0  0  0  0  0
   14.6269   16.7558   28.5926 H   0  0  0  0  0  0
   12.9921   18.3330   27.8880 H   0  0  0  0  0  0
   11.7733   19.7145   29.5031 H   0  0  0  0  0  0
  1  2  1  0  0  0
  1  3  2  0  0  0
  1 10  1  0  0  0
  2  6  2  0  0  0
  2  7  1  0  0  0
  3  4  1  0  0  0
  4  5  2  0  0  0
  4 13  1  0  0  0
  5  6  1  0  0  0
  6 11  1  0  0  0
  7  8  2  0  0  0
  7 15  1  0  0  0
  8  9  1  0  0  0
  8 12  1  0  0  0
  9 11  2  0  0  0
  9 18  1  0  0  0
 10 19  1  0  0  0
 11 20  1  0  0  0
 12 14  1  0  0  0
 12 17  2  0  0  0
 13 21  1  0  0  0
 13 22  1  0  0  0
 15 16  2  0  0  0
 15 23  1  0  0  0
 16 17  1  0  0  0
 16 24  1  0  0  0
 17 25  1  0  0  0
M  END
> <s_m_entry_id>
41381

> <s_m_entry_name>
dock_pv.498

> <s_m_Source_Path>
/home/csk/Desktop/cluster/DUD-E-result/tysy

> <s_m_Source_File>
dock_pv.maegz

> <i_m_Source_File_Index>
498

> <chembl_id>
CHEMBL307964

> <chembl_pref_name>
None

> <i_lp_mmshare_version>
53161

> <r_lp_tautomer_probability>
1

> <s_lp_Force_Field>
OPLS_2005

> <r_lp_Energy>
15.136754

> <b_lp_Chiralities_Consistent>
1

> <s_lp_Variant>
CHEMBL1952_lig40-1

> <s_i_glide_gridfile>
glide-grid_1syn

> <i_i_glide_lignum>
54

> <i_i_glide_rotatable_bonds>
1

> <r_i_docking_score>
-6.93447571740967

> <r_i_glide_ligand_efficiency>
-0.407910336318216

> <r_i_glide_ligand_efficiency_sa>
-1.0488523374237

> <r_i_glide_ligand_efficiency_ln>
-1.80905029149037

> <r_i_glide_gscore>
-6.93447571740967

> <r_i_glide_lipo>
-2.72285461021908

> <r_i_glide_hbond>
-0.0859277379051371

> <r_i_glide_metal>
0

> <r_i_glide_rewards>
-1.74170907754852

> <r_i_glide_evdw>
-37.6998062133789

> <r_i_glide_ecoul>
-2.96576523780823

> <r_i_glide_erotb>
0

> <r_i_glide_esite>
-0.0541291953967634

> <r_i_glide_emodel>
-57.5707353245148

> <r_i_glide_energy>
-40.6655714511871

> <r_i_glide_einternal>
0.933916032314301

> <i_i_glide_confnum>
1

> <i_i_glide_posenum>
331

> <r_i_glide_eff_state_penalty>
0

> <s_user_duplicate_titles>
CHEMBL1952_lig40

> <i_f3d_flags>
0

> <s_m_subgroup_title>
dock_pv

> <s_m_subgroupid>
dock_pv

> <b_m_subgroup_collapsed>
1

$$$$
CHEMBL1952_lig451
                    3D
 Schrodinger Suite 2021-1.
 33 34  0  0  1  0            999 V2000
   14.6649   16.0846   33.8916 C   0  0  1  0  0  0
   13.5390   16.6346   33.0240 C   0  0  1  0  0  0
   14.1840   17.8990   32.4891 C   0  0  1  0  0  0
   15.5542   17.6059   32.3910 O   0  0  0  0  0  0
   15.9526   16.4793   33.1633 C   0  0  2  0  0  0
   13.6568   18.3599   31.2131 N   0  0  0  0  0  0
   12.5805   19.2271   31.1979 C   0  0  0  0  0  0
   12.1920   19.6010   29.9351 N   0  0  0  0  0  0
   12.7450   19.2822   28.7276 C   0  0  0  0  0  0
   13.7273   18.2200   28.8217 C   0  0  0  0  0  0
   14.1423   17.8278   30.0384 C   0  0  0  0  0  0
   11.9823   19.6595   32.1824 O   0  0  0  0  0  0
   12.5003   19.8834   27.6860 O   0  0  0  0  0  0
   16.5097   15.4276   32.1765 C   0  0  0  0  0  0
   17.1014   14.3232   32.8443 O   0  0  0  0  0  0
   18.6682   14.3503   33.2934 P   0  0  0  0  0  0
   18.9920   12.7926   33.5911 O   0  0  0  0  0  0
   18.9923   15.2999   34.3910 O   0  0  0  0  0  0
   19.4574   14.6280   31.9090 O   0  0  0  0  0  0
   14.5921   16.6280   35.1909 O   0  0  0  0  0  0
   14.1920   17.6522   27.6925 F   0  0  0  0  0  0
   13.2922   15.8280   31.9904 F   0  0  0  0  0  0
   14.5920   15.0043   33.9912 H   0  0  0  0  0  0
   12.6036   16.8403   33.5482 H   0  0  0  0  0  0
   14.0768   18.7252   33.1998 H   0  0  0  0  0  0
   16.7355   16.7894   33.8569 H   0  0  0  0  0  0
   11.4193   20.2502   29.9007 H   0  0  0  0  0  0
   14.8749   17.0460   30.1759 H   0  0  0  0  0  0
   17.2252   15.8785   31.4895 H   0  0  0  0  0  0
   15.7034   15.0408   31.5534 H   0  0  0  0  0  0
   19.8761   12.4863   33.2677 H   0  0  0  0  0  0
   19.7922   15.5548   31.8264 H   0  0  0  0  0  0
   15.3524   16.3392   35.7049 H   0  0  0  0  0  0
  1  2  1  0  0  0
  1  5  1  0  0  0
  1 20  1  0  0  0
  1 23  1  0  0  0
  2  3  1  0  0  0
  2 22  1  0  0  0
  2 24  1  0  0  0
  3  6  1  0  0  0
  3  4  1  0  0  0
  3 25  1  0  0  0
  4  5  1  0  0  0
  5 14  1  0  0  0
  5 26  1  0  0  0
  6  7  1  0  0  0
  6 11  1  0  0  0
  7 12  2  0  0  0
  7  8  1  0  0  0
  8  9  1  0  0  0
  8 27  1  0  0  0
  9 10  1  0  0  0
  9 13  2  0  0  0
 10 11  2  0  0  0
 10 21  1  0  0  0
 11 28  1  0  0  0
 14 15  1  0  0  0
 14 29  1  0  0  0
 14 30  1  0  0  0
 15 16  1  0  0  0
 16 17  1  0  0  0
 16 18  2  0  0  0
 16 19  1  0  0  0
 17 31  1  0  0  0
 19 32  1  0  0  0
 20 33  1  0  0  0
M  END
> <s_m_entry_id>
41382

> <s_m_entry_name>
dock_pv.499

> <s_m_Source_Path>
/home/csk/Desktop/cluster/DUD-E-result/tysy

> <s_m_Source_File>
dock_pv.maegz

> <i_m_Source_File_Index>
499

> <chembl_id>
CHEMBL253954

> <chembl_pref_name>
None

> <i_lp_mmshare_version>
53161

> <r_lp_tautomer_probability>
0.999537046341301

> <s_lp_Force_Field>
OPLS_2005

> <r_lp_Energy>
17.060372

> <b_lp_Chiralities_Consistent>
1

> <s_lp_Variant>
CHEMBL1952_lig451-1

> <s_i_glide_gridfile>
glide-grid_1syn

> <i_i_glide_lignum>
881

> <i_i_glide_rotatable_bonds>
7

> <r_i_docking_score>
-6.93385696191528

> <r_i_glide_ligand_efficiency>
-0.315175316450695

> <r_i_glide_ligand_efficiency_sa>
-0.88313363183667

> <r_i_glide_ligand_efficiency_ln>
-1.69488756007

> <r_i_glide_gscore>
-6.93385696191528

> <r_i_glide_lipo>
-1.63921038174906

> <r_i_glide_hbond>
-0.166352717424156

> <r_i_glide_metal>
0

> <r_i_glide_rewards>
-2.09146167693732

> <r_i_glide_evdw>
-32.967586517334

> <r_i_glide_ecoul>
-12.9284591674805

> <r_i_glide_erotb>
0.641091403912663

> <r_i_glide_esite>
-0.0902753887286333

> <r_i_glide_emodel>
-64.8973976909806

> <r_i_glide_energy>
-45.8960456848145

> <r_i_glide_einternal>
4.67800521850586

> <i_i_glide_confnum>
129

> <i_i_glide_posenum>
333

> <r_i_glide_eff_state_penalty>
0

> <s_user_duplicate_titles>
CHEMBL1952_lig451,426113

> <i_f3d_flags>
0

> <s_m_subgroup_title>
dock_pv

> <s_m_subgroupid>
dock_pv

> <b_m_subgroup_collapsed>
1

$$$$
CHEMBL1952_lig99
                    3D
 Schrodinger Suite 2021-1.
 32 34  0  0  1  0            999 V2000
   16.9472   12.7925   35.4251 N   0  0  0  0  0  0
   15.7917   15.9578   34.1603 C   0  0  0  0  0  0
   16.7837   14.8399   34.1643 C   0  0  2  0  0  0
   16.3888   14.1520   35.4687 C   0  0  1  0  0  0
   18.3279   14.9504   34.1755 C   0  0  0  0  0  0
   18.9275   13.6978   34.3892 N   0  0  0  0  0  0
   18.2991   12.7128   34.9341 C   0  0  0  0  0  0
   14.9416   14.3328   35.4717 N   0  0  0  0  0  0
   14.6929   15.5212   34.7905 C   0  0  0  0  0  0
   15.9071   17.4280   33.1907 S   0  0  0  0  0  0
   18.8677   16.0357   33.9954 O   0  0  0  0  0  0
   12.9216   16.6297   29.8180 N   0  0  0  0  0  0
   18.9920   11.4908   35.0238 N   0  0  0  0  0  0
   14.7551   17.1056   31.8833 C   0  0  0  0  0  0
   13.3250   16.1672   34.8250 C   0  0  0  0  0  0
   13.8387   18.0939   31.5114 C   0  0  0  0  0  0
   14.7593   15.8841   31.2019 C   0  0  0  0  0  0
   13.8262   15.6852   30.1833 C   0  0  0  0  0  0
   12.9419   17.8169   30.4772 C   0  0  0  0  0  0
   16.5920   14.2280   33.2813 H   0  0  0  0  0  0
   16.7944   14.6856   36.3343 H   0  0  0  0  0  0
   18.4673   10.6642   34.7850 H   0  0  0  0  0  0
   14.6598   14.3223   36.4412 H   0  0  0  0  0  0
   19.8771   11.4641   34.5258 H   0  0  0  0  0  0
   16.7948   12.2527   36.2639 H   0  0  0  0  0  0
   13.3965   17.1894   35.1943 H   0  0  0  0  0  0
   12.8966   16.2281   33.8250 H   0  0  0  0  0  0
   12.6337   15.6092   35.4573 H   0  0  0  0  0  0
   13.8191   19.0518   32.0115 H   0  0  0  0  0  0
   15.4653   15.1071   31.4516 H   0  0  0  0  0  0
   13.7962   14.7492   29.6434 H   0  0  0  0  0  0
   12.2155   18.5547   30.1643 H   0  0  0  0  0  0
  1  4  1  0  0  0
  1 25  1  0  0  0
  1  7  1  0  0  0
  2  3  1  0  0  0
  2 10  1  0  0  0
  2  9  2  0  0  0
  3  4  1  0  0  0
  3 20  1  0  0  0
  3  5  1  0  0  0
  4  8  1  0  0  0
  4 21  1  0  0  0
  5  6  1  0  0  0
  5 11  2  0  0  0
  6  7  2  0  0  0
  7 13  1  0  0  0
  8  9  1  0  0  0
  8 23  1  0  0  0
  9 15  1  0  0  0
 10 14  1  0  0  0
 12 18  1  0  0  0
 12 19  2  0  0  0
 13 24  1  0  0  0
 13 22  1  0  0  0
 14 16  2  0  0  0
 14 17  1  0  0  0
 15 26  1  0  0  0
 15 27  1  0  0  0
 15 28  1  0  0  0
 16 19  1  0  0  0
 16 29  1  0  0  0
 17 18  2  0  0  0
 17 30  1  0  0  0
 18 31  1  0  0  0
 19 32  1  0  0  0
M  END
> <s_m_entry_id>
41383

> <s_m_entry_name>
dock_pv.500

> <s_m_Source_Path>
/home/csk/Desktop/cluster/DUD-E-result/tysy

> <s_m_Source_File>
dock_pv.maegz

> <i_m_Source_File_Index>
500

> <chembl_id>
CHEMBL138500

> <chembl_pref_name>
None

> <i_lp_mmshare_version>
53161

> <r_lp_tautomer_probability>
0.615378461538462

> <s_lp_Force_Field>
OPLS_2005

> <r_lp_Energy>
36.080413

> <b_lp_Chiralities_Consistent>
1

> <s_lp_Variant>
CHEMBL1952_lig99-1

> <s_i_glide_gridfile>
glide-grid_1syn

> <i_i_glide_lignum>
172

> <i_i_glide_rotatable_bonds>
2

> <r_i_docking_score>
-6.92423725651312

> <r_i_glide_ligand_efficiency>
-0.36443353981648

> <r_i_glide_ligand_efficiency_sa>
-0.972455057541424

> <r_i_glide_ligand_efficiency_ln>
-1.75544286350613

> <r_i_glide_gscore>
-6.92423725651312

> <r_i_glide_lipo>
-2.62619985273426

> <r_i_glide_hbond>
-0.164361686091869

> <r_i_glide_metal>
0

> <r_i_glide_rewards>
-2.26723789865234

> <r_i_glide_evdw>
-36.238697052002

> <r_i_glide_ecoul>
-3.02684330940247

> <r_i_glide_erotb>
0.474163199295576

> <r_i_glide_esite>
-0.0746396693197652

> <r_i_glide_emodel>
-55.1199305313935

> <r_i_glide_energy>
-39.2655403614044

> <r_i_glide_einternal>
3.32443165779114

> <i_i_glide_confnum>
5

> <i_i_glide_posenum>
74

> <r_i_glide_eff_state_penalty>
0

> <s_user_duplicate_titles>
CHEMBL1952_lig99

> <i_f3d_flags>
0

> <s_m_subgroup_title>
dock_pv

> <s_m_subgroupid>
dock_pv

> <b_m_subgroup_collapsed>
1

$$$$
CHEMBL1952_lig98
                    3D
 Schrodinger Suite 2021-1.
 60 62  0  0  1  0            999 V2000
   14.9773    8.3392   36.5625 C   0  0  0  0  0  0
   14.7161   16.7582   29.8403 C   0  0  0  0  0  0
   14.5874   16.9105   31.2604 C   0  0  0  0  0  0
   14.2186    7.9319   37.6022 N   0  0  0  0  0  0
   13.9196   17.4259   28.9710 N   0  0  0  0  0  0
   12.4407    6.3272   36.8826 C   0  0  0  0  0  0
   18.5261   14.0513   33.9100 C   0  0  0  0  0  0
   13.6274    6.5980   37.8326 C   0  0  1  0  0  0
   19.7301   14.2280   33.9910 C   0  0  0  0  0  0
   13.5610   17.7842   31.7363 C   0  0  0  0  0  0
   12.9599   18.2495   29.4454 C   0  0  0  0  0  0
   15.3580    9.7954   36.5415 C   0  0  0  0  0  0
   15.2650    4.8333   40.2713 C   0  0  0  0  0  0
   15.4240   16.2655   32.2198 C   0  0  0  0  0  0
   15.3808    7.5908   35.6747 O   0  0  0  0  0  0
   16.1921   14.3711   34.7808 N   0  0  2  0  0  0
   15.6864   15.9024   29.3814 O   0  0  0  0  0  0
   12.7390   18.4582   30.8015 C   0  0  0  0  0  0
   11.2880    6.2438   37.2581 O   0  0  0  0  0  0
   15.2115   16.4253   33.5941 C   0  0  0  0  0  0
   15.7922    3.8281   40.7443 O   0  0  0  0  0  0
   14.6764    5.4429   37.8389 C   0  0  0  0  0  0
   13.3908   17.9597   33.1283 C   0  0  0  0  0  0
   16.6108   10.1623   36.0383 C   0  0  0  0  0  0
   14.4687   10.7969   36.9580 C   0  0  0  0  0  0
   16.1538   15.8282   34.6453 C   0  0  0  0  0  0
   16.4715   13.9458   36.1596 C   0  0  0  0  0  0
   15.7221    5.5090   38.9783 C   0  0  0  0  0  0
   12.8623    6.2321   35.5911 O   0  0  0  0  0  0
   16.0927   12.4860   36.3621 C   0  0  0  0  0  0
   14.1937   17.2753   34.0287 C   0  0  0  0  0  0
   17.0851   13.7432   33.7701 C   0  0  0  0  0  0
   14.2361    5.4946   40.8684 O   0  0  0  0  0  0
   14.8310   12.1399   36.8514 C   0  0  0  0  0  0
   16.9918   11.4900   35.9909 C   0  0  0  0  0  0
   13.9634    8.6278   38.2832 H   0  0  0  0  0  0
   13.1843    6.6452   38.8271 H   0  0  0  0  0  0
   20.7935   14.3051   34.0421 H   0  0  0  0  0  0
   12.3492   18.7542   28.7089 H   0  0  0  0  0  0
   16.2558   15.6849   31.8661 H   0  0  0  0  0  0
   16.1251   15.4118   30.0753 H   0  0  0  0  0  0
   11.9550   19.1238   31.1360 H   0  0  0  0  0  0
   14.1553    4.4838   37.9007 H   0  0  0  0  0  0
   15.2032    5.3950   36.8830 H   0  0  0  0  0  0
   12.6245   18.6337   33.4887 H   0  0  0  0  0  0
   17.3110    9.4281   35.6696 H   0  0  0  0  0  0
   13.4800   10.5528   37.3206 H   0  0  0  0  0  0
   17.1484   16.2272   34.4414 H   0  0  0  0  0  0
   15.7920   16.2277   35.5942 H   0  0  0  0  0  0
   17.5188   14.1156   36.4051 H   0  0  0  0  0  0
   15.8911   14.5361   36.8704 H   0  0  0  0  0  0
   16.6230    4.9866   38.6565 H   0  0  0  0  0  0
   16.0205    6.5346   39.1897 H   0  0  0  0  0  0
   12.1059    6.2165   34.9890 H   0  0  0  0  0  0
   14.0351   17.4434   35.0849 H   0  0  0  0  0  0
   16.9921   12.6616   33.7894 H   0  0  0  0  0  0
   16.7924   13.9911   32.7559 H   0  0  0  0  0  0
   13.9703    5.0751   41.6897 H   0  0  0  0  0  0
   14.1249   12.9115   37.1247 H   0  0  0  0  0  0
   17.9738   11.7469   35.6212 H   0  0  0  0  0  0
  1  4  1  0  0  0
  1 12  1  0  0  0
  1 15  2  0  0  0
  2  3  1  0  0  0
  2  5  2  0  0  0
  2 17  1  0  0  0
  3 14  2  0  0  0
  3 10  1  0  0  0
  4  8  1  0  0  0
  4 36  1  0  0  0
  5 11  1  0  0  0
  6  8  1  0  0  0
  6 19  2  0  0  0
  6 29  1  0  0  0
  7 32  1  0  0  0
  7  9  3  0  0  0
  8 22  1  0  0  0
  8 37  1  0  0  0
  9 38  1  0  0  0
 10 23  2  0  0  0
 10 18  1  0  0  0
 11 18  2  0  0  0
 11 39  1  0  0  0
 12 24  2  0  0  0
 12 25  1  0  0  0
 13 28  1  0  0  0
 13 21  2  0  0  0
 13 33  1  0  0  0
 14 20  1  0  0  0
 14 40  1  0  0  0
 16 27  1  0  0  0
 16 26  1  0  0  0
 16 32  1  0  0  0
 17 41  1  0  0  0
 18 42  1  0  0  0
 20 26  1  0  0  0
 20 31  2  0  0  0
 22 28  1  0  0  0
 22 43  1  0  0  0
 22 44  1  0  0  0
 23 31  1  0  0  0
 23 45  1  0  0  0
 24 35  1  0  0  0
 24 46  1  0  0  0
 25 34  2  0  0  0
 25 47  1  0  0  0
 26 48  1  0  0  0
 26 49  1  0  0  0
 27 30  1  0  0  0
 27 50  1  0  0  0
 27 51  1  0  0  0
 28 52  1  0  0  0
 28 53  1  0  0  0
 29 54  1  0  0  0
 30 34  1  0  0  0
 30 35  2  0  0  0
 31 55  1  0  0  0
 32 56  1  0  0  0
 32 57  1  0  0  0
 33 58  1  0  0  0
 34 59  1  0  0  0
 35 60  1  0  0  0
M  END
> <s_m_entry_id>
41384

> <s_m_entry_name>
dock_pv.501

> <s_m_Source_Path>
/home/csk/Desktop/cluster/DUD-E-result/tysy

> <s_m_Source_File>
dock_pv.maegz

> <i_m_Source_File_Index>
501

> <chembl_id>
CHEMBL92234

> <chembl_pref_name>
None

> <i_lp_mmshare_version>
53161

> <r_lp_tautomer_probability>
1

> <s_lp_Force_Field>
OPLS_2005

> <r_lp_Energy>
19.264834

> <b_lp_Chiralities_Consistent>
1

> <s_lp_Variant>
CHEMBL1952_lig98-1

> <s_i_glide_gridfile>
glide-grid_1syn

> <i_i_glide_lignum>
170

> <i_i_glide_rotatable_bonds>
16

> <r_i_docking_score>
-6.9190005915479

> <r_i_glide_ligand_efficiency>
-0.197685731187083

> <r_i_glide_ligand_efficiency_sa>
-0.646643134524717

> <r_i_glide_ligand_efficiency_ln>
-1.51887418878936

> <r_i_glide_gscore>
-6.9190005915479

> <r_i_glide_lipo>
-3.63342615870091

> <r_i_glide_hbond>
-0.0983221408537969

> <r_i_glide_metal>
0

> <r_i_glide_rewards>
-0.407576746264809

> <r_i_glide_evdw>
-52.4219360351562

> <r_i_glide_ecoul>
-8.7231330871582

> <r_i_glide_erotb>
1.16392482113242

> <r_i_glide_esite>
-0.01403360202926

> <r_i_glide_emodel>
-80.8768557617526

> <r_i_glide_energy>
-61.1450691223145

> <r_i_glide_einternal>
10.0924892425537

> <i_i_glide_confnum>
92

> <i_i_glide_posenum>
374

> <r_i_glide_eff_state_penalty>
0

> <s_user_duplicate_titles>
CHEMBL1952_lig98

> <i_f3d_flags>
0

> <s_m_subgroup_title>
dock_pv

> <s_m_subgroupid>
dock_pv

> <b_m_subgroup_collapsed>
1

$$$$
CHEMBL1952_lig324 
                    3D
 Schrodinger Suite 2021-1.
 51 54  0  0  1  0            999 V2000
   14.5199   17.2689   31.9060 N   0  0  0  0  0  0
   14.3942   16.9396   30.5692 C   0  0  0  0  0  0
   15.1546   16.0466   30.0333 N   0  0  0  0  0  0
   15.4036   16.7625   32.8263 C   0  0  0  0  0  0
   16.2807   15.7673   32.2022 C   0  0  0  0  0  0
   16.0825   15.4754   30.8528 C   0  0  0  0  0  0
   16.9917   14.5322   30.4756 N   0  0  0  0  0  0
   17.7695   14.2285   31.5650 C   0  0  0  0  0  0
   17.3497   14.9700   32.6726 C   0  0  0  0  0  0
   15.3917   17.1521   33.9908 O   0  0  0  0  0  0
   13.4186   17.6031   29.8021 N   0  0  0  0  0  0
   17.9403   14.9130   34.0678 C   0  0  0  0  0  0
   17.3995   13.7207   34.8401 C   0  0  0  0  0  0
   16.2297   13.8485   35.5908 C   0  0  0  0  0  0
   15.6724   12.7304   36.2064 C   0  0  0  0  0  0
   16.2829   11.4726   36.0773 C   0  0  0  0  0  0
   17.4806   11.3660   35.3569 C   0  0  0  0  0  0
   18.0383   12.4837   34.7440 C   0  0  0  0  0  0
   15.6594   10.2284   36.6629 C   0  0  0  0  0  0
   15.7917    9.1500   36.0840 O   0  0  0  0  0  0
   14.9920   10.3993   37.8274 N   0  0  0  0  0  0
   14.3501    9.4426   38.6559 C   0  0  0  0  0  0
   14.6668    8.0719   38.5831 C   0  0  0  0  0  0
   14.0780    7.1384   39.4377 C   0  0  0  0  0  0
   13.1535    7.5701   40.3857 C   0  0  0  0  0  0
   12.8291    8.9197   40.4806 C   0  0  0  0  0  0
   13.4059    9.8700   39.6253 C   0  0  0  0  0  0
   12.9895   11.3105   39.8080 C   0  0  0  0  0  0
   12.7456   11.9696   38.6418 O   0  0  0  0  0  0
   12.8238   11.8114   40.9206 O   0  0  0  0  0  0
   14.4404    5.6634   39.3374 C   0  0  0  0  0  0
   15.2799    5.2325   40.3912 O   0  0  0  0  0  0
   13.8948   17.9649   32.2797 H   0  0  0  0  0  0
   17.0726   14.1348   29.5501 H   0  0  0  0  0  0
   18.5603   13.4939   31.4729 H   0  0  0  0  0  0
   13.4635   17.4962   28.8002 H   0  0  0  0  0  0
   13.1407   18.5354   30.0712 H   0  0  0  0  0  0
   17.7362   15.8274   34.6230 H   0  0  0  0  0  0
   19.0284   14.8476   34.0203 H   0  0  0  0  0  0
   15.7337   14.8063   35.6664 H   0  0  0  0  0  0
   14.7456   12.8562   36.7470 H   0  0  0  0  0  0
   17.9759   10.4113   35.2424 H   0  0  0  0  0  0
   18.9429   12.3765   34.1596 H   0  0  0  0  0  0
   14.9468   11.3527   38.1537 H   0  0  0  0  0  0
   15.3922    7.7013   37.8787 H   0  0  0  0  0  0
   12.6859    6.8616   41.0546 H   0  0  0  0  0  0
   12.1109    9.2185   41.2320 H   0  0  0  0  0  0
   12.7801   11.3633   37.8986 H   0  0  0  0  0  0
   13.5332    5.0568   39.3305 H   0  0  0  0  0  0
   14.9434    5.4583   38.3906 H   0  0  0  0  0  0
   14.8440    5.4310   41.2244 H   0  0  0  0  0  0
  1  2  1  0  0  0
  1  4  1  0  0  0
  1 33  1  0  0  0
  2  3  2  0  0  0
  2 11  1  0  0  0
  3  6  1  0  0  0
  4  5  1  0  0  0
  4 10  2  0  0  0
  5  6  2  0  0  0
  5  9  1  0  0  0
  6  7  1  0  0  0
  7  8  1  0  0  0
  7 34  1  0  0  0
  8  9  2  0  0  0
  8 35  1  0  0  0
  9 12  1  0  0  0
 11 36  1  0  0  0
 11 37  1  0  0  0
 12 13  1  0  0  0
 12 38  1  0  0  0
 12 39  1  0  0  0
 13 14  2  0  0  0
 13 18  1  0  0  0
 14 15  1  0  0  0
 14 40  1  0  0  0
 15 16  2  0  0  0
 15 41  1  0  0  0
 16 17  1  0  0  0
 16 19  1  0  0  0
 17 18  2  0  0  0
 17 42  1  0  0  0
 18 43  1  0  0  0
 19 20  2  0  0  0
 19 21  1  0  0  0
 21 22  1  0  0  0
 21 44  1  0  0  0
 22 23  2  0  0  0
 22 27  1  0  0  0
 23 24  1  0  0  0
 23 45  1  0  0  0
 24 25  2  0  0  0
 24 31  1  0  0  0
 25 26  1  0  0  0
 25 46  1  0  0  0
 26 27  2  0  0  0
 26 47  1  0  0  0
 27 28  1  0  0  0
 28 29  1  0  0  0
 28 30  2  0  0  0
 29 48  1  0  0  0
 31 32  1  0  0  0
 31 49  1  0  0  0
 31 50  1  0  0  0
 32 51  1  0  0  0
M  END
> <s_m_entry_id>
41386

> <s_m_entry_name>
dock_pv.503

> <s_m_Source_Path>
/home/csk/Desktop/cluster/DUD-E-result/tysy

> <s_m_Source_File>
dock_pv.maegz

> <i_m_Source_File_Index>
503

> <chembl_id>
CHEMBL4437270

> <chembl_pref_name>
None

> <i_lp_mmshare_version>
53161

> <r_lp_tautomer_probability>
1

> <s_lp_Force_Field>
OPLS_2005

> <r_lp_Energy>
35.555697

> <b_lp_Chiralities_Consistent>
1

> <s_lp_Variant>
CHEMBL1952_lig324 -1

> <s_i_glide_gridfile>
glide-grid_1syn

> <i_i_glide_lignum>
599

> <i_i_glide_rotatable_bonds>
9

> <r_i_docking_score>
-6.91703381616714

> <r_i_glide_ligand_efficiency>
-0.216157306755223

> <r_i_glide_ligand_efficiency_sa>
-0.686256671474914

> <r_i_glide_ligand_efficiency_ln>
-1.54891242266042

> <r_i_glide_gscore>
-6.91703381616714

> <r_i_glide_lipo>
-2.54224851796021

> <r_i_glide_hbond>
0

> <r_i_glide_metal>
0

> <r_i_glide_rewards>
-1.36707956266885

> <r_i_glide_evdw>
-52.1505470275879

> <r_i_glide_ecoul>
-7.55242395401001

> <r_i_glide_erotb>
0.741808432726388

> <r_i_glide_esite>
-0.00912322378357923

> <r_i_glide_emodel>
-84.42397144751

> <r_i_glide_energy>
-59.7029709815979

> <r_i_glide_einternal>
4.29451417922974

> <i_i_glide_confnum>
89

> <i_i_glide_posenum>
148

> <r_i_glide_eff_state_penalty>
0

> <s_user_duplicate_titles>
CHEMBL1952_lig324 

> <i_f3d_flags>
0

> <s_m_subgroup_title>
dock_pv

> <s_m_subgroupid>
dock_pv

> <b_m_subgroup_collapsed>
1

$$$$
CHEMBL1952_lig190
                    3D
 Schrodinger Suite 2021-1.
 65 67  0  0  1  0            999 V2000
   13.8012   17.9426   31.5429 N   0  0  0  0  0  0
   13.9050   17.3447   30.4149 C   0  0  0  0  0  0
   14.8076   16.3166   30.1671 N   0  0  0  0  0  0
   14.6189   17.6548   32.6315 C   0  0  0  0  0  0
   12.9749   17.7692   29.2618 C   0  0  0  0  0  0
   14.5888   18.2282   33.7185 O   0  0  0  0  0  0
   15.6177   16.5363   32.4052 C   0  0  0  0  0  0
   15.6822   15.8844   31.1694 C   0  0  0  0  0  0
   16.5914   14.8449   30.9716 C   0  0  0  0  0  0
   17.3972   14.4190   32.0343 C   0  0  0  0  0  0
   17.3059   15.0508   33.2845 C   0  0  0  0  0  0
   16.4542   16.1392   33.4413 C   0  0  0  0  0  0
   18.0975   14.5814   34.5004 C   0  0  0  0  0  0
   17.8278   13.1785   34.8465 N   0  0  0  0  0  0
   16.6668   12.8320   35.6165 C   0  0  0  0  0  0
   15.5632   13.6971   35.7031 C   0  0  0  0  0  0
   14.3990   13.3480   36.3833 C   0  0  0  0  0  0
   14.2975   12.1053   37.0210 C   0  0  0  0  0  0
   15.4046   11.2580   36.9966 C   0  0  0  0  0  0
   16.5662   11.6309   36.3369 C   0  0  0  0  0  0
   13.0657   11.6770   37.7844 C   0  0  0  0  0  0
   13.0132   10.5677   38.3258 O   0  0  0  0  0  0
   12.0869   12.5892   37.9221 N   0  0  0  0  0  0
   10.8956   12.4205   38.7666 C   0  0  1  0  0  0
   11.1270   13.1799   40.1020 C   0  0  0  0  0  0
    9.5990   12.8525   38.0420 C   0  0  0  0  0  0
    9.6085   12.4747   36.7322 O   0  0  0  0  0  0
    8.6838   13.4275   38.5887 O   0  0  0  0  0  0
   12.3034   12.6673   40.9693 C   0  0  0  0  0  0
   12.8624   13.7583   41.8771 C   0  0  0  0  0  0
   13.6793   14.6275   41.2143 O   0  0  0  0  0  0
   12.5974   13.8363   43.0724 O   0  0  0  0  0  0
   18.9629   12.2924   34.5157 C   0  0  0  0  0  0
   18.7135   10.8534   34.3743 C   0  0  0  0  0  0
   13.7742   18.1072   27.9907 C   0  0  0  0  0  0
   18.5920    9.6555   34.1938 C   0  0  0  0  0  0
   12.0340   18.9402   29.6238 C   0  0  0  0  0  0
   14.8339   15.8695   29.2649 H   0  0  0  0  0  0
   12.3366   16.9175   29.0398 H   0  0  0  0  0  0
   16.6535   14.3402   30.0194 H   0  0  0  0  0  0
   18.0717   13.5862   31.8918 H   0  0  0  0  0  0
   16.3884   16.6361   34.3905 H   0  0  0  0  0  0
   19.1556   14.7354   34.2796 H   0  0  0  0  0  0
   17.8919   15.2139   35.3662 H   0  0  0  0  0  0
   15.5595   14.6542   35.2212 H   0  0  0  0  0  0
   13.5857   14.0583   36.3848 H   0  0  0  0  0  0
   15.3934   10.3119   37.5176 H   0  0  0  0  0  0
   17.3951   10.9560   36.4438 H   0  0  0  0  0  0
   12.1160   13.4306   37.3699 H   0  0  0  0  0  0
   10.7411   11.3641   38.9932 H   0  0  0  0  0  0
   11.2810   14.2280   39.8748 H   0  0  0  0  0  0
   10.2136   13.1541   40.6988 H   0  0  0  0  0  0
    8.7885   12.7225   36.3002 H   0  0  0  0  0  0
   11.9814   11.8139   41.5654 H   0  0  0  0  0  0
   13.1360   12.3044   40.3717 H   0  0  0  0  0  0
   13.7734   14.4099   40.2824 H   0  0  0  0  0  0
   19.3860   12.5924   33.5570 H   0  0  0  0  0  0
   19.7702   12.4036   35.2299 H   0  0  0  0  0  0
   14.1919   17.2030   27.5515 H   0  0  0  0  0  0
   13.1408   18.5647   27.2299 H   0  0  0  0  0  0
   14.5857   18.8044   28.2034 H   0  0  0  0  0  0
   18.5929    8.6178   33.9919 H   0  0  0  0  0  0
   11.3922   18.6707   30.4632 H   0  0  0  0  0  0
   12.5921   19.8294   29.9097 H   0  0  0  0  0  0
   11.3916   19.2158   28.7914 H   0  0  0  0  0  0
  1  2  2  0  0  0
  1  4  1  0  0  0
  2  3  1  0  0  0
  2  5  1  0  0  0
  3  8  1  0  0  0
  3 38  1  0  0  0
  4  6  2  0  0  0
  4  7  1  0  0  0
  5 35  1  0  0  0
  5 37  1  0  0  0
  5 39  1  0  0  0
  7 12  1  0  0  0
  7  8  2  0  0  0
  8  9  1  0  0  0
  9 10  2  0  0  0
  9 40  1  0  0  0
 10 11  1  0  0  0
 10 41  1  0  0  0
 11 12  2  0  0  0
 11 13  1  0  0  0
 12 42  1  0  0  0
 13 14  1  0  0  0
 13 43  1  0  0  0
 13 44  1  0  0  0
 14 15  1  0  0  0
 14 33  1  0  0  0
 15 20  1  0  0  0
 15 16  2  0  0  0
 16 17  1  0  0  0
 16 45  1  0  0  0
 17 18  2  0  0  0
 17 46  1  0  0  0
 18 19  1  0  0  0
 18 21  1  0  0  0
 19 20  2  0  0  0
 19 47  1  0  0  0
 20 48  1  0  0  0
 21 22  2  0  0  0
 21 23  1  0  0  0
 23 24  1  0  0  0
 23 49  1  0  0  0
 24 25  1  0  0  0
 24 26  1  0  0  0
 24 50  1  0  0  0
 25 29  1  0  0  0
 25 51  1  0  0  0
 25 52  1  0  0  0
 26 27  1  0  0  0
 26 28  2  0  0  0
 27 53  1  0  0  0
 29 30  1  0  0  0
 29 54  1  0  0  0
 29 55  1  0  0  0
 30 31  1  0  0  0
 30 32  2  0  0  0
 31 56  1  0  0  0
 33 34  1  0  0  0
 33 57  1  0  0  0
 33 58  1  0  0  0
 34 36  3  0  0  0
 35 59  1  0  0  0
 35 60  1  0  0  0
 35 61  1  0  0  0
 36 62  1  0  0  0
 37 63  1  0  0  0
 37 64  1  0  0  0
 37 65  1  0  0  0
M  END
> <s_m_entry_id>
41391

> <s_m_entry_name>
dock_pv.508

> <s_m_Source_Path>
/home/csk/Desktop/cluster/DUD-E-result/tysy

> <s_m_Source_File>
dock_pv.maegz

> <i_m_Source_File_Index>
508

> <chembl_id>
CHEMBL102317

> <chembl_pref_name>
None

> <i_lp_mmshare_version>
53161

> <r_lp_tautomer_probability>
0.116051

> <s_lp_Force_Field>
OPLS_2005

> <r_lp_Energy>
20.668834

> <b_lp_Chiralities_Consistent>
1

> <s_lp_Variant>
CHEMBL1952_lig190-2

> <s_i_glide_gridfile>
glide-grid_1syn

> <i_i_glide_lignum>
378

> <i_i_glide_rotatable_bonds>
15

> <r_i_docking_score>
-6.89942792269145

> <r_i_glide_ligand_efficiency>
-0.186471024937607

> <r_i_glide_ligand_efficiency_sa>
-0.621362823248014

> <r_i_glide_ligand_efficiency_ln>
-1.49632417089265

> <r_i_glide_gscore>
-6.89942792269145

> <r_i_glide_lipo>
-3.60423263025826

> <r_i_glide_hbond>
-0.127320081699123

> <r_i_glide_metal>
0

> <r_i_glide_rewards>
-0.738146342778486

> <r_i_glide_evdw>
-60.4069671630859

> <r_i_glide_ecoul>
-2.21571826934814

> <r_i_glide_erotb>
0.963907806683721

> <r_i_glide_esite>
-0.0409305760827778

> <r_i_glide_emodel>
-85.7546686901112

> <r_i_glide_energy>
-62.6226854324341

> <r_i_glide_einternal>
7.55750942230225

> <i_i_glide_confnum>
7

> <i_i_glide_posenum>
102

> <r_i_glide_eff_state_penalty>
0

> <s_user_duplicate_titles>
CHEMBL1952_lig190,170363

> <i_f3d_flags>
0

> <s_m_subgroup_title>
dock_pv

> <s_m_subgroupid>
dock_pv

> <b_m_subgroup_collapsed>
1

$$$$
CHEMBL1952_lig346
                    3D
 Schrodinger Suite 2021-1.
 53 56  0  0  1  0            999 V2000
   13.6188   17.4123   30.3958 S   0  0  0  0  0  0
   14.6131   16.6280   31.6662 C   0  0  0  0  0  0
   14.7157    9.7536   36.3910 C   0  0  0  0  0  0
   14.4951   11.2472   36.3910 C   0  0  0  0  0  0
   13.5633    9.0598   36.5485 N   0  0  0  0  0  0
   12.1088   10.8395   36.7613 N   0  0  0  0  0  0
   13.1930   11.7157   36.5888 C   0  0  0  0  0  0
   12.3082    9.5742   36.7165 C   0  0  0  0  0  0
   14.3385   16.8102   33.0233 C   0  0  0  0  0  0
   15.1255   16.1771   33.9823 C   0  0  0  0  0  0
   16.1947   15.3404   33.6236 C   0  0  0  0  0  0
   15.6916   15.8279   31.2876 C   0  0  0  0  0  0
   16.9408   14.6274   34.6042 N   0  0  0  0  0  0
   18.5920   12.7870   34.5625 C   0  0  0  0  0  0
   13.1094   18.6733   30.9433 O   0  0  0  0  0  0
   14.4173   17.4075   29.1650 O   0  0  0  0  0  0
   18.8547   11.6156   34.7910 C   0  0  0  0  0  0
   12.1920   16.3739   30.0708 C   0  0  0  0  0  0
   15.5524   12.1392   36.2033 C   0  0  0  0  0  0
   15.7920    9.1755   36.2773 O   0  0  0  0  0  0
   16.4576   14.5044   35.9910 C   0  0  0  0  0  0
   16.4719   15.1966   32.2537 C   0  0  0  0  0  0
   15.3038   13.5163   36.1726 C   0  0  0  0  0  0
   12.9495   13.0853   36.6152 C   0  0  0  0  0  0
   13.3049   17.5770   33.4361 F   0  0  0  0  0  0
   18.3317   14.2210   34.3317 C   0  0  0  0  0  0
   14.0004   13.9776   36.3947 C   0  0  0  0  0  0
   11.1623    8.6025   36.8626 C   0  0  0  0  0  0
   11.0332   16.9815   29.5910 C   0  0  0  0  0  0
   12.2124   14.9920   30.2771 C   0  0  0  0  0  0
   11.0772   14.2280   29.9780 C   0  0  0  0  0  0
    9.9452   16.1966   29.1910 C   0  0  0  0  0  0
    9.9664   14.8257   29.4005 C   0  0  0  0  0  0
   14.8757   16.3569   35.0131 H   0  0  0  0  0  0
   15.9207   15.6736   30.2423 H   0  0  0  0  0  0
   19.1163   10.5948   34.9595 H   0  0  0  0  0  0
   16.5559   11.7660   36.0867 H   0  0  0  0  0  0
   13.6808    8.0609   36.5348 H   0  0  0  0  0  0
   16.1884   15.4760   36.3910 H   0  0  0  0  0  0
   17.2722   14.1676   36.6305 H   0  0  0  0  0  0
   17.2550   14.5442   31.9010 H   0  0  0  0  0  0
   11.9462   13.4500   36.7734 H   0  0  0  0  0  0
   18.6899   14.4595   33.3323 H   0  0  0  0  0  0
   18.9887   14.7737   35.0035 H   0  0  0  0  0  0
   13.7920   15.0315   36.4006 H   0  0  0  0  0  0
   10.2065    9.1190   36.9562 H   0  0  0  0  0  0
   11.0984    7.9492   35.9929 H   0  0  0  0  0  0
   11.2911    7.9792   37.7469 H   0  0  0  0  0  0
   10.9928   18.0546   29.4519 H   0  0  0  0  0  0
   13.0885   14.5053   30.6777 H   0  0  0  0  0  0
   11.0269   13.1671   30.1715 H   0  0  0  0  0  0
    9.0606   16.6280   28.7576 H   0  0  0  0  0  0
    9.1056   14.2280   29.1417 H   0  0  0  0  0  0
  1  2  1  0  0  0
  1 15  2  0  0  0
  1 16  2  0  0  0
  1 18  1  0  0  0
  2  9  2  0  0  0
  2 12  1  0  0  0
  3 20  2  0  0  0
  3  4  1  0  0  0
  3  5  1  0  0  0
  4 19  1  0  0  0
  4  7  2  0  0  0
  5  8  1  0  0  0
  5 38  1  0  0  0
  6  7  1  0  0  0
  6  8  2  0  0  0
  7 24  1  0  0  0
  8 28  1  0  0  0
  9 10  1  0  0  0
  9 25  1  0  0  0
 10 11  2  0  0  0
 10 34  1  0  0  0
 11 22  1  0  0  0
 11 13  1  0  0  0
 12 22  2  0  0  0
 12 35  1  0  0  0
 13 21  1  0  0  0
 13 26  1  0  0  0
 14 26  1  0  0  0
 14 17  3  0  0  0
 17 36  1  0  0  0
 18 29  1  0  0  0
 18 30  2  0  0  0
 19 37  1  0  0  0
 19 23  2  0  0  0
 21 39  1  0  0  0
 21 40  1  0  0  0
 21 23  1  0  0  0
 22 41  1  0  0  0
 23 27  1  0  0  0
 24 27  2  0  0  0
 24 42  1  0  0  0
 26 43  1  0  0  0
 26 44  1  0  0  0
 27 45  1  0  0  0
 28 46  1  0  0  0
 28 47  1  0  0  0
 28 48  1  0  0  0
 29 32  2  0  0  0
 29 49  1  0  0  0
 30 31  1  0  0  0
 30 50  1  0  0  0
 31 33  2  0  0  0
 31 51  1  0  0  0
 32 33  1  0  0  0
 32 52  1  0  0  0
 33 53  1  0  0  0
M  END
> <s_m_entry_id>
41393

> <s_m_entry_name>
dock_pv.510

> <s_m_Source_Path>
/home/csk/Desktop/cluster/DUD-E-result/tysy

> <s_m_Source_File>
dock_pv.maegz

> <i_m_Source_File_Index>
510

> <chembl_id>
CHEMBL158542

> <chembl_pref_name>
None

> <i_lp_mmshare_version>
53161

> <r_lp_tautomer_probability>
0.883938

> <s_lp_Force_Field>
OPLS_2005

> <r_lp_Energy>
24.32442

> <b_lp_Chiralities_Consistent>
1

> <s_lp_Variant>
CHEMBL1952_lig346-1

> <s_i_glide_gridfile>
glide-grid_1syn

> <i_i_glide_lignum>
635

> <i_i_glide_rotatable_bonds>
7

> <r_i_docking_score>
-6.86613548711296

> <r_i_glide_ligand_efficiency>
-0.208064711730696

> <r_i_glide_ligand_efficiency_sa>
-0.667374704959065

> <r_i_glide_ligand_efficiency_ln>
-1.52699298138702

> <r_i_glide_gscore>
-6.86613548711296

> <r_i_glide_lipo>
-3.39197762739898

> <r_i_glide_hbond>
0

> <r_i_glide_metal>
0

> <r_i_glide_rewards>
-1.33602574712565

> <r_i_glide_evdw>
-43.1875419616699

> <r_i_glide_ecoul>
-4.27037143707275

> <r_i_glide_erotb>
0.661800701056072

> <r_i_glide_esite>
0

> <r_i_glide_emodel>
-60.0497065754304

> <r_i_glide_energy>
-47.4579133987427

> <r_i_glide_einternal>
11.2656803131104

> <i_i_glide_confnum>
36

> <i_i_glide_posenum>
393

> <r_i_glide_eff_state_penalty>
0

> <s_user_duplicate_titles>
CHEMBL1952_lig346,267044

> <i_f3d_flags>
0

> <s_m_subgroup_title>
dock_pv

> <s_m_subgroupid>
dock_pv

> <b_m_subgroup_collapsed>
1

$$$$
CHEMBL1952_lig347
                    3D
 Schrodinger Suite 2021-1.
 56 59  0  0  1  0            999 V2000
   15.2951   17.0038   33.3519 S   0  0  0  0  0  0
   16.4011   14.7238   34.7615 C   0  0  0  0  0  0
   15.3267   15.6265   34.5249 C   0  0  0  0  0  0
   13.4053    7.2476   39.3642 C   0  0  0  0  0  0
   13.9678    7.8379   38.0966 C   0  0  0  0  0  0
   12.8441    6.0298   39.1690 N   0  0  0  0  0  0
   13.1638    5.8659   36.8939 N   0  0  0  0  0  0
   17.7970   14.7749   34.1018 C   0  0  0  0  0  0
   13.7883    7.1198   36.9117 C   0  0  0  0  0  0
   12.7186    5.3637   37.9822 C   0  0  0  0  0  0
   16.1564   13.6165   35.5921 C   0  0  0  0  0  0
   14.9086   13.3519   36.1745 C   0  0  0  0  0  0
   14.6566   12.1492   36.8939 N   0  0  0  0  0  0
   14.1161   15.4264   35.1913 C   0  0  0  0  0  0
   12.2789   11.5118   37.0246 C   0  0  0  0  0  0
   14.0880   17.7948   33.6142 O   0  0  0  0  0  0
   16.5919   17.6692   33.3813 O   0  0  0  0  0  0
   11.3412   11.0316   36.4060 C   0  0  0  0  0  0
   15.0820   16.2624   31.7365 C   0  0  0  0  0  0
   14.5988    9.0825   38.0885 C   0  0  0  0  0  0
   13.3957    7.7820   40.4670 O   0  0  0  0  0  0
   15.6226   11.0301   36.8090 C   0  0  0  0  0  0
   15.0019    9.6378   36.8673 C   0  0  0  0  0  0
   13.9101   14.3149   35.9937 C   0  0  0  0  0  0
   14.2497    7.6384   35.7110 C   0  0  0  0  0  0
   18.3231   15.9858   33.9925 F   0  0  0  0  0  0
   18.6940   14.0667   34.7912 F   0  0  0  0  0  0
   17.7184   14.2189   32.8972 F   0  0  0  0  0  0
   13.4488   12.0592   37.7379 C   0  0  0  0  0  0
   14.8443    8.9005   35.6845 C   0  0  0  0  0  0
   12.0738    4.0008   37.9873 C   0  0  0  0  0  0
   16.1896   15.8216   31.0116 C   0  0  0  0  0  0
   13.7960   16.1184   31.2112 C   0  0  0  0  0  0
   13.6181   15.4813   29.9879 C   0  0  0  0  0  0
   16.0109   15.2056   29.7768 C   0  0  0  0  0  0
   14.7249   15.0299   29.2734 C   0  0  0  0  0  0
   16.9677   12.9309   35.7637 H   0  0  0  0  0  0
   13.2803   16.0968   35.0544 H   0  0  0  0  0  0
   10.5420   10.5990   35.8432 H   0  0  0  0  0  0
   14.7403    9.6327   39.0096 H   0  0  0  0  0  0
   12.4619    5.6179   40.0023 H   0  0  0  0  0  0
   16.3680   11.1393   37.5914 H   0  0  0  0  0  0
   16.1801   11.0671   35.8745 H   0  0  0  0  0  0
   12.9242   14.1963   36.4142 H   0  0  0  0  0  0
   14.1309    7.0483   34.8170 H   0  0  0  0  0  0
   13.6381   11.4272   38.5992 H   0  0  0  0  0  0
   13.1959   13.0215   38.1867 H   0  0  0  0  0  0
   15.1839    9.3078   34.7459 H   0  0  0  0  0  0
   11.7168    3.7313   36.9929 H   0  0  0  0  0  0
   12.7954    3.2463   38.2970 H   0  0  0  0  0  0
   11.2219    3.9621   38.6676 H   0  0  0  0  0  0
   17.1866   15.9532   31.4026 H   0  0  0  0  0  0
   12.9339   16.4658   31.7621 H   0  0  0  0  0  0
   12.6231   15.3335   29.6003 H   0  0  0  0  0  0
   16.8633   14.8531   29.2185 H   0  0  0  0  0  0
   14.5911   14.5370   28.3222 H   0  0  0  0  0  0
  1  3  1  0  0  0
  1 16  2  0  0  0
  1 17  2  0  0  0
  1 19  1  0  0  0
  2  3  1  0  0  0
  2  8  1  0  0  0
  2 11  2  0  0  0
  3 14  2  0  0  0
  4 21  2  0  0  0
  4  5  1  0  0  0
  4  6  1  0  0  0
  5 20  1  0  0  0
  5  9  2  0  0  0
  6 10  1  0  0  0
  6 41  1  0  0  0
  7  9  1  0  0  0
  7 10  2  0  0  0
  8 26  1  0  0  0
  8 27  1  0  0  0
  8 28  1  0  0  0
  9 25  1  0  0  0
 10 31  1  0  0  0
 11 12  1  0  0  0
 11 37  1  0  0  0
 12 24  2  0  0  0
 12 13  1  0  0  0
 13 22  1  0  0  0
 13 29  1  0  0  0
 14 24  1  0  0  0
 14 38  1  0  0  0
 15 29  1  0  0  0
 15 18  3  0  0  0
 18 39  1  0  0  0
 19 32  2  0  0  0
 19 33  1  0  0  0
 20 40  1  0  0  0
 20 23  2  0  0  0
 22 42  1  0  0  0
 22 43  1  0  0  0
 22 23  1  0  0  0
 23 30  1  0  0  0
 24 44  1  0  0  0
 25 30  2  0  0  0
 25 45  1  0  0  0
 29 46  1  0  0  0
 29 47  1  0  0  0
 30 48  1  0  0  0
 31 49  1  0  0  0
 31 50  1  0  0  0
 31 51  1  0  0  0
 32 35  1  0  0  0
 32 52  1  0  0  0
 33 34  2  0  0  0
 33 53  1  0  0  0
 34 36  1  0  0  0
 34 54  1  0  0  0
 35 36  2  0  0  0
 35 55  1  0  0  0
 36 56  1  0  0  0
M  END
> <s_m_entry_id>
41396

> <s_m_entry_name>
dock_pv.513

> <s_m_Source_Path>
/home/csk/Desktop/cluster/DUD-E-result/tysy

> <s_m_Source_File>
dock_pv.maegz

> <i_m_Source_File_Index>
513

> <chembl_id>
CHEMBL291548

> <chembl_pref_name>
None

> <i_lp_mmshare_version>
53161

> <r_lp_tautomer_probability>
0.883938

> <s_lp_Force_Field>
OPLS_2005

> <r_lp_Energy>
27.405127

> <b_lp_Chiralities_Consistent>
1

> <s_lp_Variant>
CHEMBL1952_lig347-1

> <s_i_glide_gridfile>
glide-grid_1syn

> <i_i_glide_lignum>
637

> <i_i_glide_rotatable_bonds>
8

> <r_i_docking_score>
-6.84606733281488

> <r_i_glide_ligand_efficiency>
-0.190168537022636

> <r_i_glide_ligand_efficiency_sa>
-0.627922673527409

> <r_i_glide_ligand_efficiency_ln>
-1.49362693265556

> <r_i_glide_gscore>
-6.84606733281488

> <r_i_glide_lipo>
-4.09275866182454

> <r_i_glide_hbond>
0

> <r_i_glide_metal>
0

> <r_i_glide_rewards>
-1.16898588417801

> <r_i_glide_evdw>
-49.7760925292969

> <r_i_glide_ecoul>
2.46623826026917

> <r_i_glide_erotb>
0.54827227279714

> <r_i_glide_esite>
-0.0137261721850023

> <r_i_glide_emodel>
-64.1309686251115

> <r_i_glide_energy>
-47.3098542690277

> <r_i_glide_einternal>
4.10372066497803

> <i_i_glide_confnum>
55

> <i_i_glide_posenum>
202

> <r_i_glide_eff_state_penalty>
0

> <s_user_duplicate_titles>
CHEMBL1952_lig347,89721

> <i_f3d_flags>
0

> <s_m_subgroup_title>
dock_pv

> <s_m_subgroupid>
dock_pv

> <b_m_subgroup_collapsed>
1

$$$$
CHEMBL1952_lig278
                    3D
 Schrodinger Suite 2021-1.
 42 45  0  0  1  0            999 V2000
   16.9893   16.0964   32.3933 C   0  0  0  0  0  0
   15.7421   16.1803   31.6294 N   0  0  0  0  0  0
   16.8886   15.0540   33.5084 C   0  0  0  0  0  0
   18.4544   14.8002   34.3910 S   0  0  0  0  0  0
   18.1686   13.1300   34.8611 C   0  0  0  0  0  0
   18.9895   12.1145   34.7910 N   0  0  0  0  0  0
   18.2676   11.0103   35.2318 N   0  0  0  0  0  0
   17.0910   11.4666   35.5908 C   0  0  0  0  0  0
   16.9637   12.8032   35.3927 O   0  0  0  0  0  0
   14.6274   16.9794   31.8312 C   0  0  0  0  0  0
   13.7634   16.6558   30.7912 C   0  0  0  0  0  0
   14.2527   15.7182   30.0056 N   0  0  0  0  0  0
   15.4290   15.4302   30.5103 C   0  0  0  0  0  0
   16.3468   14.3782   29.9206 C   0  0  0  0  0  0
   14.4627   17.9247   32.8973 N   0  3  0  0  0  0
   15.2944   17.9846   33.7958 O   0  0  0  0  0  0
   13.4577   18.6226   32.8459 O   0  5  0  0  0  0
   15.9256   10.6970   36.0970 C   0  0  0  0  0  0
   15.6654    9.4191   35.5915 C   0  0  0  0  0  0
   14.0042   10.5020   37.5658 C   0  0  0  0  0  0
   15.0813   11.2407   37.0720 C   0  0  0  0  0  0
   13.7537    9.2255   37.0648 C   0  0  0  0  0  0
   14.5839    8.6808   36.0714 C   0  0  0  0  0  0
   14.3277    7.4545   35.4865 O   0  0  0  0  0  0
   13.4303    6.6224   36.2316 C   0  0  0  0  0  0
   12.2450    7.4386   36.8038 C   0  0  0  0  0  0
   12.7152    8.5115   37.6258 O   0  0  0  0  0  0
   17.7946   15.8278   31.7099 H   0  0  0  0  0  0
   17.2492   17.0730   32.7917 H   0  0  0  0  0  0
   16.1153   15.3219   34.2301 H   0  0  0  0  0  0
   16.5923   14.1095   33.0574 H   0  0  0  0  0  0
   12.7901   17.0941   30.6169 H   0  0  0  0  0  0
   15.9085   13.8843   29.0524 H   0  0  0  0  0  0
   16.5913   13.5923   30.6358 H   0  0  0  0  0  0
   17.2904   14.8139   29.5951 H   0  0  0  0  0  0
   16.2931    9.0162   34.8104 H   0  0  0  0  0  0
   13.3685   10.9158   38.3341 H   0  0  0  0  0  0
   15.2750   12.2291   37.4644 H   0  0  0  0  0  0
   13.9746    6.1526   37.0528 H   0  0  0  0  0  0
   13.0598    5.8292   35.5821 H   0  0  0  0  0  0
   11.5867    6.7970   37.3897 H   0  0  0  0  0  0
   11.6565    7.8513   35.9844 H   0  0  0  0  0  0
  1  2  1  0  0  0
  1  3  1  0  0  0
  1 28  1  0  0  0
  1 29  1  0  0  0
  2 10  1  0  0  0
  2 13  1  0  0  0
  3  4  1  0  0  0
  3 30  1  0  0  0
  3 31  1  0  0  0
  4  5  1  0  0  0
  5  6  2  0  0  0
  5  9  1  0  0  0
  6  7  1  0  0  0
  7  8  2  0  0  0
  8  9  1  0  0  0
  8 18  1  0  0  0
 10 11  2  0  0  0
 10 15  1  0  0  0
 11 12  1  0  0  0
 11 32  1  0  0  0
 12 13  2  0  0  0
 13 14  1  0  0  0
 14 33  1  0  0  0
 14 34  1  0  0  0
 14 35  1  0  0  0
 15 16  2  0  0  0
 15 17  1  0  0  0
 18 19  2  0  0  0
 18 21  1  0  0  0
 19 23  1  0  0  0
 19 36  1  0  0  0
 20 22  1  0  0  0
 20 21  2  0  0  0
 20 37  1  0  0  0
 21 38  1  0  0  0
 22 23  2  0  0  0
 22 27  1  0  0  0
 23 24  1  0  0  0
 24 25  1  0  0  0
 25 26  1  0  0  0
 25 39  1  0  0  0
 25 40  1  0  0  0
 26 27  1  0  0  0
 26 41  1  0  0  0
 26 42  1  0  0  0
M  CHG  2  15   1  17  -1
M  END
> <s_m_entry_id>
41397

> <s_m_entry_name>
dock_pv.514

> <s_m_Source_Path>
/home/csk/Desktop/cluster/DUD-E-result/tysy

> <s_m_Source_File>
dock_pv.maegz

> <i_m_Source_File_Index>
514

> <chembl_id>
CHEMBL2348547

> <chembl_pref_name>
None

> <i_lp_mmshare_version>
53161

> <r_lp_tautomer_probability>
1

> <s_lp_Force_Field>
OPLS_2005

> <r_lp_Energy>
17.013988

> <b_lp_Chiralities_Consistent>
1

> <s_lp_Variant>
CHEMBL1952_lig278-1

> <s_i_glide_gridfile>
glide-grid_1syn

> <i_i_glide_lignum>
548

> <i_i_glide_rotatable_bonds>
6

> <r_i_docking_score>
-6.83928719519662

> <r_i_glide_ligand_efficiency>
-0.25330693315543

> <r_i_glide_ligand_efficiency_sa>
-0.759920798631433

> <r_i_glide_ligand_efficiency_ln>
-1.59207330458012

> <r_i_glide_gscore>
-6.83928719519662

> <r_i_glide_lipo>
-2.54711225354473

> <r_i_glide_hbond>
-0.164154852783461

> <r_i_glide_metal>
0

> <r_i_glide_rewards>
-1.99176870655979

> <r_i_glide_evdw>
-48.657341003418

> <r_i_glide_ecoul>
-1.77045845985413

> <r_i_glide_erotb>
0.642839585604328

> <r_i_glide_esite>
-0.0806551487639547

> <r_i_glide_emodel>
-66.3211066968807

> <r_i_glide_energy>
-50.4277994632721

> <r_i_glide_einternal>
6.80874300003052

> <i_i_glide_confnum>
131

> <i_i_glide_posenum>
170

> <r_i_glide_eff_state_penalty>
0

> <s_user_duplicate_titles>
CHEMBL1952_lig278

> <i_f3d_flags>
0

> <s_m_subgroup_title>
dock_pv

> <s_m_subgroupid>
dock_pv

> <b_m_subgroup_collapsed>
1

$$$$
CHEMBL1952_lig341
                    3D
 Schrodinger Suite 2021-1.
 61 63  0  0  1  0            999 V2000
   13.3262   18.1724   31.4684 N   0  0  0  0  0  0
   14.2717   17.4045   32.0598 C   0  0  0  0  0  0
   13.8018   17.0830   29.3772 N   0  0  0  0  0  0
   15.0329   16.4407   31.3706 C   0  0  0  0  0  0
   14.7316   16.3234   30.0038 C   0  0  0  0  0  0
   13.1443   17.9790   30.1453 C   0  0  0  0  0  0
   14.8278    9.9003   37.6304 C   0  0  0  0  0  0
   14.3957   17.5832   33.4429 N   0  0  0  0  0  0
   13.5241   10.1773   37.8555 N   0  0  0  0  0  0
   12.5025    9.3987   38.5950 C   0  0  1  0  0  0
   12.8041    9.4828   40.1314 C   0  0  0  0  0  0
   15.5707   10.9067   36.7876 C   0  0  0  0  0  0
   16.1465   15.6593   32.0754 C   0  0  0  0  0  0
   11.4627   12.4984   39.0370 C   0  0  0  0  0  0
   15.3895    8.8808   38.0333 O   0  0  0  0  0  0
   13.6560   10.1876   40.6365 O   0  0  0  0  0  0
   11.1012   10.0181   38.2387 C   0  0  0  0  0  0
   11.8344   13.0299   40.0792 O   0  0  0  0  0  0
   15.4008   15.4131   29.1959 N   0  0  0  0  0  0
   12.1944   18.7688   29.5192 N   0  0  0  0  0  0
   15.2099   12.2613   36.7945 C   0  0  0  0  0  0
   16.6434   10.4911   35.9880 C   0  0  0  0  0  0
   15.6008   17.0953   34.1081 C   0  0  0  0  0  0
   10.5632   11.2593   39.0139 C   0  0  0  0  0  0
   11.9536    8.6830   40.8408 O   0  0  0  0  0  0
   16.0129   15.6864   33.6168 C   0  0  2  0  0  0
   16.9373   12.7522   35.1743 C   0  0  0  0  0  0
   11.7603   12.9358   37.7809 O   0  0  0  0  0  0
   15.8825   13.1729   35.9917 C   0  0  0  0  0  0
   17.3256   11.4105   35.1926 C   0  0  0  0  0  0
   17.6714   13.7059   34.2244 C   0  0  0  0  0  0
   17.3152   15.2085   34.3311 C   0  0  0  0  0  0
   12.4989    7.9147   38.1164 C   0  0  0  0  0  0
   13.9733   18.4092   33.8451 H   0  0  0  0  0  0
   13.2517   11.1218   37.6343 H   0  0  0  0  0  0
   17.0969   16.1116   31.7892 H   0  0  0  0  0  0
   16.1798   14.6283   31.7202 H   0  0  0  0  0  0
   10.3363    9.2477   38.3512 H   0  0  0  0  0  0
   11.0681   10.2326   37.1686 H   0  0  0  0  0  0
   16.0774   14.7858   29.6029 H   0  0  0  0  0  0
   15.1263   15.3404   28.2282 H   0  0  0  0  0  0
   12.0097   18.6258   28.5400 H   0  0  0  0  0  0
   11.5669   19.3271   30.0830 H   0  0  0  0  0  0
   14.4115   12.6311   37.4214 H   0  0  0  0  0  0
   16.9424    9.4500   35.9601 H   0  0  0  0  0  0
   15.3917   17.0734   35.1779 H   0  0  0  0  0  0
   16.4185   17.8069   33.9893 H   0  0  0  0  0  0
   10.3479   10.9813   40.0447 H   0  0  0  0  0  0
    9.5988   11.5586   38.5999 H   0  0  0  0  0  0
   11.3606    8.1859   40.2749 H   0  0  0  0  0  0
   15.2032   15.0185   33.9048 H   0  0  0  0  0  0
   11.2949   12.4436   37.1025 H   0  0  0  0  0  0
   15.5610   14.2018   36.0229 H   0  0  0  0  0  0
   18.1414   11.0740   34.5683 H   0  0  0  0  0  0
   18.7361   13.5997   34.4426 H   0  0  0  0  0  0
   17.5484   13.3589   33.1975 H   0  0  0  0  0  0
   17.2833   15.4291   35.3964 H   0  0  0  0  0  0
   18.1528   15.7944   33.9477 H   0  0  0  0  0  0
   11.6466    7.3502   38.4955 H   0  0  0  0  0  0
   12.4545    7.8538   37.0282 H   0  0  0  0  0  0
   13.3925    7.3724   38.4290 H   0  0  0  0  0  0
  1  2  2  0  0  0
  1  6  1  0  0  0
  2  4  1  0  0  0
  2  8  1  0  0  0
  3  6  2  0  0  0
  3  5  1  0  0  0
  4 13  1  0  0  0
  4  5  2  0  0  0
  5 19  1  0  0  0
  6 20  1  0  0  0
  7 12  1  0  0  0
  7  9  1  0  0  0
  7 15  2  0  0  0
  8 23  1  0  0  0
  8 34  1  0  0  0
  9 10  1  0  0  0
  9 35  1  0  0  0
 10 11  1  0  0  0
 10 17  1  0  0  0
 10 33  1  0  0  0
 11 16  2  0  0  0
 11 25  1  0  0  0
 12 22  2  0  0  0
 12 21  1  0  0  0
 13 26  1  0  0  0
 13 36  1  0  0  0
 13 37  1  0  0  0
 14 24  1  0  0  0
 14 18  2  0  0  0
 14 28  1  0  0  0
 17 24  1  0  0  0
 17 38  1  0  0  0
 17 39  1  0  0  0
 19 40  1  0  0  0
 19 41  1  0  0  0
 20 42  1  0  0  0
 20 43  1  0  0  0
 21 29  2  0  0  0
 21 44  1  0  0  0
 22 30  1  0  0  0
 22 45  1  0  0  0
 23 26  1  0  0  0
 23 46  1  0  0  0
 23 47  1  0  0  0
 24 48  1  0  0  0
 24 49  1  0  0  0
 25 50  1  0  0  0
 26 32  1  0  0  0
 26 51  1  0  0  0
 27 31  1  0  0  0
 27 29  1  0  0  0
 27 30  2  0  0  0
 28 52  1  0  0  0
 29 53  1  0  0  0
 30 54  1  0  0  0
 31 32  1  0  0  0
 31 55  1  0  0  0
 31 56  1  0  0  0
 32 57  1  0  0  0
 32 58  1  0  0  0
 33 59  1  0  0  0
 33 60  1  0  0  0
 33 61  1  0  0  0
M  END
> <s_m_entry_id>
41398

> <s_m_entry_name>
dock_pv.515

> <s_m_Source_Path>
/home/csk/Desktop/cluster/DUD-E-result/tysy

> <s_m_Source_File>
dock_pv.maegz

> <i_m_Source_File_Index>
515

> <chembl_id>
CHEMBL354249

> <chembl_pref_name>
None

> <i_lp_mmshare_version>
53161

> <r_lp_tautomer_probability>
1

> <s_lp_Force_Field>
OPLS_2005

> <r_lp_Energy>
16.319036

> <b_lp_Chiralities_Consistent>
1

> <s_lp_Variant>
CHEMBL1952_lig341-1

> <s_i_glide_gridfile>
glide-grid_1syn

> <i_i_glide_lignum>
619

> <i_i_glide_rotatable_bonds>
12

> <r_i_docking_score>
-6.83313744066743

> <r_i_glide_ligand_efficiency>
-0.207064770929316

> <r_i_glide_ligand_efficiency_sa>
-0.664167360514414

> <r_i_glide_ligand_efficiency_ln>
-1.51965438671227

> <r_i_glide_gscore>
-6.83313744066743

> <r_i_glide_lipo>
-3.18994161461867

> <r_i_glide_hbond>
-0.425199899074992

> <r_i_glide_metal>
0

> <r_i_glide_rewards>
-0.68166112770901

> <r_i_glide_evdw>
-48.4748077392578

> <r_i_glide_ecoul>
-6.8319730758667

> <r_i_glide_erotb>
0.964426047045822

> <r_i_glide_esite>
-0.0522244979676814

> <r_i_glide_emodel>
-74.0255685028138

> <r_i_glide_energy>
-55.3067808151245

> <r_i_glide_einternal>
6.58102130889893

> <i_i_glide_confnum>
82

> <i_i_glide_posenum>
47

> <r_i_glide_eff_state_penalty>
0

> <s_user_duplicate_titles>
CHEMBL1952_lig341

> <i_f3d_flags>
0

> <s_m_subgroup_title>
dock_pv

> <s_m_subgroupid>
dock_pv

> <b_m_subgroup_collapsed>
1

$$$$
CHEMBL1952_lig84
                    3D
 Schrodinger Suite 2021-1.
 56 58  0  0  1  0            999 V2000
   14.0363   10.2221   36.1901 N   0  0  0  0  0  0
   14.9979    9.2973   36.5524 C   0  0  0  0  0  0
   14.5375    8.0101   36.6162 N   0  0  0  0  0  0
   14.3999   11.6317   36.1426 C   0  0  2  0  0  0
   12.7282    9.8321   35.9982 C   0  0  0  0  0  0
   12.3050    8.5578   36.1248 C   0  0  0  0  0  0
   13.2789    7.5204   36.4355 C   0  0  0  0  0  0
   18.1608   14.6466   33.3037 P   0  0  2  0  0  0
   15.4712   11.8917   35.2817 O   0  0  0  0  0  0
   16.0104   16.0860   32.1625 C   0  0  2  0  0  0
   14.7533   12.3195   37.4453 C   0  0  0  0  0  0
   16.5999   14.8537   32.6866 N   0  0  3  0  0  0
   15.9840   13.2015   35.5361 C   0  0  1  0  0  0
   15.3839   16.9225   33.2682 C   0  0  0  0  0  0
   15.3905   13.5869   36.9036 C   0  0  1  0  0  0
   17.5267   13.2137   35.4666 C   0  0  0  0  0  0
   16.1738    9.5308   36.8236 O   0  0  0  0  0  0
   18.0421   13.2412   34.1336 O   0  0  0  0  0  0
   14.9719   15.7069   31.0701 C   0  0  0  0  0  0
   18.7409   15.7752   34.0800 O   0  0  0  0  0  0
   13.0340    6.3214   36.5360 O   0  0  0  0  0  0
   15.7498   18.0672   33.5368 O   0  0  0  0  0  0
   11.0019    8.2266   35.9910 F   0  0  0  0  0  0
   18.9936   14.2279   31.9764 O   0  0  0  0  0  0
   14.3650   16.2839   33.8781 O   0  0  0  0  0  0
   14.4501   14.6280   36.8134 O   0  0  0  0  0  0
   14.1511   16.7939   30.3995 C   0  0  0  0  0  0
   13.5337   16.9770   34.7910 C   0  0  0  0  0  0
   14.5753   17.3717   29.1910 C   0  0  0  0  0  0
   12.9862   17.2874   31.0133 C   0  0  0  0  0  0
   12.2302   18.2694   30.3914 C   0  0  0  0  0  0
   13.7920   18.3385   28.5676 C   0  0  0  0  0  0
   12.6222   18.7872   29.1664 C   0  0  0  0  0  0
   15.2284    7.3168   36.8532 H   0  0  0  0  0  0
   13.5384   12.1317   35.6910 H   0  0  0  0  0  0
   12.0451   10.6385   35.7682 H   0  0  0  0  0  0
   16.8141   16.6582   31.7064 H   0  0  0  0  0  0
   15.4696   11.7120   37.9910 H   0  0  0  0  0  0
   13.8688   12.4830   38.0616 H   0  0  0  0  0  0
   16.1263   14.0034   32.3880 H   0  0  0  0  0  0
   15.6029   13.8959   34.7911 H   0  0  0  0  0  0
   16.1516   13.9289   37.5910 H   0  0  0  0  0  0
   17.9294   12.3468   35.9911 H   0  0  0  0  0  0
   17.9043   14.0919   35.9906 H   0  0  0  0  0  0
   14.2360   15.0281   31.4934 H   0  0  0  0  0  0
   15.4713   15.1379   30.2837 H   0  0  0  0  0  0
   19.4888   13.3748   32.0108 H   0  0  0  0  0  0
   14.8816   15.4516   37.0886 H   0  0  0  0  0  0
   12.7971   16.2829   35.1950 H   0  0  0  0  0  0
   14.1175   17.3990   35.6089 H   0  0  0  0  0  0
   13.0019   17.7910   34.2962 H   0  0  0  0  0  0
   15.4972   17.0342   28.7481 H   0  0  0  0  0  0
   12.6513   16.8795   31.9547 H   0  0  0  0  0  0
   11.3286   18.6280   30.8621 H   0  0  0  0  0  0
   14.1048   18.7527   27.6193 H   0  0  0  0  0  0
   12.0150   19.5417   28.6863 H   0  0  0  0  0  0
  1  2  1  0  0  0
  1  4  1  0  0  0
  1  5  1  0  0  0
  2  3  1  0  0  0
  2 17  2  0  0  0
  3  7  1  0  0  0
  3 34  1  0  0  0
  4  9  1  0  0  0
  4 11  1  0  0  0
  4 35  1  0  0  0
  5  6  2  0  0  0
  5 36  1  0  0  0
  6  7  1  0  0  0
  6 23  1  0  0  0
  7 21  2  0  0  0
  8 18  1  0  0  0
  8 12  1  0  0  0
  8 20  2  0  0  0
  8 24  1  0  0  0
  9 13  1  0  0  0
 10 12  1  0  0  0
 10 14  1  0  0  0
 10 19  1  0  0  0
 10 37  1  0  0  0
 11 15  1  0  0  0
 11 38  1  0  0  0
 11 39  1  0  0  0
 12 40  1  0  0  0
 13 16  1  0  0  0
 13 15  1  0  0  0
 13 41  1  0  0  0
 14 22  2  0  0  0
 14 25  1  0  0  0
 15 26  1  0  0  0
 15 42  1  0  0  0
 16 18  1  0  0  0
 16 43  1  0  0  0
 16 44  1  0  0  0
 19 27  1  0  0  0
 19 45  1  0  0  0
 19 46  1  0  0  0
 24 47  1  0  0  0
 25 28  1  0  0  0
 26 48  1  0  0  0
 27 29  2  0  0  0
 27 30  1  0  0  0
 28 49  1  0  0  0
 28 50  1  0  0  0
 28 51  1  0  0  0
 29 32  1  0  0  0
 29 52  1  0  0  0
 30 31  2  0  0  0
 30 53  1  0  0  0
 31 33  1  0  0  0
 31 54  1  0  0  0
 32 33  2  0  0  0
 32 55  1  0  0  0
 33 56  1  0  0  0
M  END
> <s_m_entry_id>
41399

> <s_m_entry_name>
dock_pv.516

> <s_m_Source_Path>
/home/csk/Desktop/cluster/DUD-E-result/tysy

> <s_m_Source_File>
dock_pv.maegz

> <i_m_Source_File_Index>
516

> <chembl_id>
CHEMBL96148

> <chembl_pref_name>
None

> <i_lp_mmshare_version>
53161

> <r_lp_tautomer_probability>
0.999537046341301

> <s_lp_Force_Field>
OPLS_2005

> <r_lp_Energy>
7.550198

> <b_lp_Chiralities_Consistent>
1

> <s_lp_Variant>
CHEMBL1952_lig84-3

> <s_i_glide_gridfile>
glide-grid_1syn

> <i_i_glide_lignum>
136

> <i_i_glide_rotatable_bonds>
12

> <r_i_docking_score>
-6.83132948968942

> <r_i_glide_ligand_efficiency>
-0.207009984536043

> <r_i_glide_ligand_efficiency_sa>
-0.66399163127738

> <r_i_glide_ligand_efficiency_ln>
-1.51925230777583

> <r_i_glide_gscore>
-6.83132948968942

> <r_i_glide_lipo>
-2.68115692480842

> <r_i_glide_hbond>
-0.209987323760449

> <r_i_glide_metal>
0

> <r_i_glide_rewards>
-1.13585843660277

> <r_i_glide_evdw>
-47.1905746459961

> <r_i_glide_ecoul>
-7.37017726898193

> <r_i_glide_erotb>
0.68466949704679

> <r_i_glide_esite>
-0.0239409789174805

> <r_i_glide_emodel>
-70.8945226952606

> <r_i_glide_energy>
-54.560751914978

> <r_i_glide_einternal>
10.9958915710449

> <i_i_glide_confnum>
18

> <i_i_glide_posenum>
287

> <r_i_glide_eff_state_penalty>
0

> <s_user_duplicate_titles>
CHEMBL1952_lig84

> <i_f3d_flags>
0

> <s_m_subgroup_title>
dock_pv

> <s_m_subgroupid>
dock_pv

> <b_m_subgroup_collapsed>
1

$$$$
CHEMBL1952_lig198
                    3D
 Schrodinger Suite 2021-1.
 62 64  0  0  1  0            999 V2000
   13.9189   18.1956   32.1867 N   0  0  0  0  0  0
   13.3919   17.8268   30.9771 C   0  0  0  0  0  0
   13.8950   16.8430   30.3139 N   0  0  0  0  0  0
   14.9922   17.6587   32.8088 C   0  0  0  0  0  0
   12.2229   18.6561   30.4534 C   0  0  0  0  0  0
   15.3919   18.0981   33.8823 O   0  0  0  0  0  0
   15.6028   16.5199   32.0267 C   0  0  0  0  0  0
   14.9963   16.1462   30.8253 C   0  0  0  0  0  0
   15.5165   15.0873   30.0861 C   0  0  0  0  0  0
   16.6506   14.4148   30.5476 C   0  0  0  0  0  0
   17.2954   14.8140   31.7249 C   0  0  0  0  0  0
   16.7558   15.8729   32.4686 C   0  0  0  0  0  0
   18.6125   14.1289   32.1160 C   0  0  0  0  0  0
   19.0287   14.3562   33.5155 N   0  0  0  0  0  0
   18.2248   13.6269   34.4208 C   0  0  0  0  0  0
   18.2462   12.2290   34.4383 C   0  0  0  0  0  0
   17.3156   11.5183   35.1910 C   0  0  0  0  0  0
   16.3320   12.1949   35.9329 C   0  0  0  0  0  0
   16.3856   13.5955   35.9906 C   0  0  0  0  0  0
   17.3322   14.3014   35.2535 C   0  0  0  0  0  0
   15.1819   11.4654   36.5999 C   0  0  0  0  0  0
   14.2360   12.1016   37.0702 O   0  0  0  0  0  0
   15.2539   10.1175   36.6345 N   0  0  0  0  0  0
   14.2457    9.1186   37.0589 C   0  0  1  0  0  0
   13.2704    9.5953   38.1843 C   0  0  0  0  0  0
   13.5803    8.4883   35.8060 C   0  0  0  0  0  0
   12.2540    8.2280   35.9910 O   0  0  0  0  0  0
   14.1923    8.2280   34.7910 O   0  0  0  0  0  0
   13.9520   10.0870   39.4832 C   0  0  0  0  0  0
   13.1225   11.1430   40.2147 C   0  0  0  0  0  0
   13.0560   12.3164   39.5215 O   0  0  0  0  0  0
   12.5937   10.9635   41.3106 O   0  0  0  0  0  0
   20.4619   14.3169   33.8524 C   0  0  0  0  0  0
   11.3920   17.9009   29.5910 O   0  0  0  0  0  0
   21.5278   14.6280   32.7910 C   0  0  0  0  0  0
   22.8101   14.2280   32.8975 C   0  0  0  0  0  0
   13.5093   18.9680   32.6885 H   0  0  0  0  0  0
   11.6138   19.0280   31.2784 H   0  0  0  0  0  0
   12.5975   19.5264   29.9139 H   0  0  0  0  0  0
   15.0437   14.7909   29.1618 H   0  0  0  0  0  0
   17.0433   13.5871   29.9781 H   0  0  0  0  0  0
   17.2619   16.2321   33.3511 H   0  0  0  0  0  0
   18.4975   13.0590   31.9355 H   0  0  0  0  0  0
   19.3690   14.4588   31.4073 H   0  0  0  0  0  0
   18.9510   11.6945   33.8156 H   0  0  0  0  0  0
   17.3369   10.4413   35.1184 H   0  0  0  0  0  0
   15.6691   14.1580   36.5739 H   0  0  0  0  0  0
   17.3282   15.3789   35.2951 H   0  0  0  0  0  0
   16.0553    9.7093   36.1815 H   0  0  0  0  0  0
   14.8271    8.3008   37.4853 H   0  0  0  0  0  0
   12.5862   10.3463   37.7847 H   0  0  0  0  0  0
   12.6248    8.7620   38.4680 H   0  0  0  0  0  0
   11.8690    7.8519   35.1866 H   0  0  0  0  0  0
   14.1367    9.2441   40.1498 H   0  0  0  0  0  0
   14.9281   10.5208   39.2736 H   0  0  0  0  0  0
   13.4984   12.2744   38.6596 H   0  0  0  0  0  0
   20.5920   15.0152   34.6801 H   0  0  0  0  0  0
   20.7152   13.3512   34.2853 H   0  0  0  0  0  0
   10.6214   18.4487   29.3844 H   0  0  0  0  0  0
   21.2479   15.2080   31.9281 H   0  0  0  0  0  0
   23.5403   14.4659   32.1400 H   0  0  0  0  0  0
   23.1451   13.6435   33.7428 H   0  0  0  0  0  0
  1  2  1  0  0  0
  1  4  1  0  0  0
  1 37  1  0  0  0
  2  5  1  0  0  0
  2  3  2  0  0  0
  3  8  1  0  0  0
  4  7  1  0  0  0
  4  6  2  0  0  0
  5 34  1  0  0  0
  5 38  1  0  0  0
  5 39  1  0  0  0
  7 12  1  0  0  0
  7  8  2  0  0  0
  8  9  1  0  0  0
  9 10  2  0  0  0
  9 40  1  0  0  0
 10 11  1  0  0  0
 10 41  1  0  0  0
 11 12  2  0  0  0
 11 13  1  0  0  0
 12 42  1  0  0  0
 13 14  1  0  0  0
 13 43  1  0  0  0
 13 44  1  0  0  0
 14 15  1  0  0  0
 14 33  1  0  0  0
 15 20  1  0  0  0
 15 16  2  0  0  0
 16 17  1  0  0  0
 16 45  1  0  0  0
 17 18  2  0  0  0
 17 46  1  0  0  0
 18 19  1  0  0  0
 18 21  1  0  0  0
 19 20  2  0  0  0
 19 47  1  0  0  0
 20 48  1  0  0  0
 21 22  2  0  0  0
 21 23  1  0  0  0
 23 24  1  0  0  0
 23 49  1  0  0  0
 24 25  1  0  0  0
 24 26  1  0  0  0
 24 50  1  0  0  0
 25 29  1  0  0  0
 25 51  1  0  0  0
 25 52  1  0  0  0
 26 27  1  0  0  0
 26 28  2  0  0  0
 27 53  1  0  0  0
 29 30  1  0  0  0
 29 54  1  0  0  0
 29 55  1  0  0  0
 30 31  1  0  0  0
 30 32  2  0  0  0
 31 56  1  0  0  0
 33 35  1  0  0  0
 33 57  1  0  0  0
 33 58  1  0  0  0
 34 59  1  0  0  0
 35 36  2  0  0  0
 35 60  1  0  0  0
 36 61  1  0  0  0
 36 62  1  0  0  0
M  END
> <s_m_entry_id>
41400

> <s_m_entry_name>
dock_pv.517

> <s_m_Source_Path>
/home/csk/Desktop/cluster/DUD-E-result/tysy

> <s_m_Source_File>
dock_pv.maegz

> <i_m_Source_File_Index>
517

> <chembl_id>
CHEMBL105045

> <chembl_pref_name>
None

> <i_lp_mmshare_version>
53161

> <r_lp_tautomer_probability>
0.883938

> <s_lp_Force_Field>
OPLS_2005

> <r_lp_Energy>
22.70764

> <b_lp_Chiralities_Consistent>
1

> <s_lp_Variant>
CHEMBL1952_lig198-1

> <s_i_glide_gridfile>
glide-grid_1syn

> <i_i_glide_lignum>
393

> <i_i_glide_rotatable_bonds>
16

> <r_i_docking_score>
-6.83008224569072

> <r_i_glide_ligand_efficiency>
-0.189724506824742

> <r_i_glide_ligand_efficiency_sa>
-0.626456518119404

> <r_i_glide_ligand_efficiency_ln>
-1.49013941851222

> <r_i_glide_gscore>
-6.83008224569072

> <r_i_glide_lipo>
-2.9378904144815

> <r_i_glide_hbond>
-0.522003639572286

> <r_i_glide_metal>
0

> <r_i_glide_rewards>
0.505626123696257

> <r_i_glide_evdw>
-50.2941970825195

> <r_i_glide_ecoul>
-15.8519639968872

> <r_i_glide_erotb>
1.08341999929785

> <r_i_glide_esite>
-0.0667298609719778

> <r_i_glide_emodel>
-84.8295490583295

> <r_i_glide_energy>
-66.1461610794067

> <r_i_glide_einternal>
11.8102951049805

> <i_i_glide_confnum>
49

> <i_i_glide_posenum>
304

> <r_i_glide_eff_state_penalty>
0

> <s_user_duplicate_titles>
CHEMBL1952_lig198,170960

> <i_f3d_flags>
0

> <s_m_subgroup_title>
dock_pv

> <s_m_subgroupid>
dock_pv

> <b_m_subgroup_collapsed>
1

$$$$
CHEMBL1952_lig47
                    3D
 Schrodinger Suite 2021-1.
 26 28  0  0  1  0            999 V2000
   15.4544   16.4136   31.8084 C   0  0  0  0  0  0
   15.9278   16.5243   33.1760 C   0  0  0  0  0  0
   16.8991   15.7180   33.6713 N   0  0  0  0  0  0
   17.0852   14.5859   31.5624 N   0  0  0  0  0  0
   16.1157   15.3863   31.0494 C   0  0  0  0  0  0
   14.4468   17.2097   31.1497 C   0  0  0  0  0  0
   17.4250   14.7908   32.8471 C   0  0  0  0  0  0
   15.3934   17.4735   33.9934 O   0  0  0  0  0  0
   14.1577   16.9562   29.7664 C   0  0  0  0  0  0
   13.6962   18.2722   31.7626 C   0  0  0  0  0  0
   15.7820   15.1520   29.7094 C   0  0  0  0  0  0
   14.8258   15.9233   29.0817 C   0  0  0  0  0  0
   13.2023   17.7401   29.0724 C   0  0  0  0  0  0
   12.7712   19.0263   31.0495 C   0  0  0  0  0  0
   12.5197   18.7605   29.7147 C   0  0  0  0  0  0
   11.7945   20.6176   31.9918 I   0  0  0  0  0  0
   18.4896   13.8702   33.4102 C   0  0  0  0  0  0
   14.6822   17.9549   33.5800 H   0  0  0  0  0  0
   13.7977   18.5804   32.7814 H   0  0  0  0  0  0
   16.2840   14.3625   29.1650 H   0  0  0  0  0  0
   14.5927   15.7340   28.0433 H   0  0  0  0  0  0
   13.0001   17.5454   28.0284 H   0  0  0  0  0  0
   11.7909   19.3524   29.1741 H   0  0  0  0  0  0
   18.7185   14.0830   34.4561 H   0  0  0  0  0  0
   19.4105   13.9593   32.8330 H   0  0  0  0  0  0
   18.1601   12.8336   33.3383 H   0  0  0  0  0  0
  1  2  1  0  0  0
  1  5  2  0  0  0
  1  6  1  0  0  0
  2  3  2  0  0  0
  2  8  1  0  0  0
  3  7  1  0  0  0
  4  5  1  0  0  0
  4  7  2  0  0  0
  5 11  1  0  0  0
  6  9  2  0  0  0
  6 10  1  0  0  0
  7 17  1  0  0  0
  8 18  1  0  0  0
  9 12  1  0  0  0
  9 13  1  0  0  0
 10 14  2  0  0  0
 10 19  1  0  0  0
 11 12  2  0  0  0
 11 20  1  0  0  0
 12 21  1  0  0  0
 13 15  2  0  0  0
 13 22  1  0  0  0
 14 15  1  0  0  0
 14 16  1  0  0  0
 15 23  1  0  0  0
 17 24  1  0  0  0
 17 25  1  0  0  0
 17 26  1  0  0  0
M  END
> <s_m_entry_id>
41402

> <s_m_entry_name>
dock_pv.519

> <s_m_Source_Path>
/home/csk/Desktop/cluster/DUD-E-result/tysy

> <s_m_Source_File>
dock_pv.maegz

> <i_m_Source_File_Index>
519

> <chembl_id>
CHEMBL75136

> <chembl_pref_name>
None

> <i_lp_mmshare_version>
53161

> <r_lp_tautomer_probability>
1

> <s_lp_Force_Field>
OPLS_2005

> <r_lp_Energy>
14.359048

> <b_lp_Chiralities_Consistent>
1

> <s_lp_Variant>
CHEMBL1952_lig47-1

> <s_i_glide_gridfile>
glide-grid_1syn

> <i_i_glide_lignum>
65

> <i_i_glide_rotatable_bonds>
1

> <r_i_docking_score>
-6.80623241796823

> <r_i_glide_ligand_efficiency>
-0.400366612821661

> <r_i_glide_ligand_efficiency_sa>
-1.02945530009031

> <r_i_glide_ligand_efficiency_ln>
-1.77559447050396

> <r_i_glide_gscore>
-6.80623241796823

> <r_i_glide_lipo>
-3.1218923665657

> <r_i_glide_hbond>
0

> <r_i_glide_metal>
0

> <r_i_glide_rewards>
-1.51866270660348

> <r_i_glide_evdw>
-37.9406852722168

> <r_i_glide_ecoul>
-1.79095387458801

> <r_i_glide_erotb>
0

> <r_i_glide_esite>
0

> <r_i_glide_emodel>
-56.3322047025318

> <r_i_glide_energy>
-39.7316391468048

> <r_i_glide_einternal>
0.00415216851979494

> <i_i_glide_confnum>
1

> <i_i_glide_posenum>
345

> <r_i_glide_eff_state_penalty>
0

> <s_user_duplicate_titles>
CHEMBL1952_lig47

> <i_f3d_flags>
0

> <s_m_subgroup_title>
dock_pv

> <s_m_subgroupid>
dock_pv

> <b_m_subgroup_collapsed>
1

$$$$
183696
                    3D
 Schrodinger Suite 2021-1.
 72 74  0  0  1  0            999 V2000
   10.8868    4.4929   40.9929 C   0  0  0  0  0  0
   10.2065    5.5332   41.8975 C   0  0  0  0  0  0
   11.1983    6.4842   42.6156 C   0  0  2  0  0  0
   10.4796    7.4103   43.6329 C   0  0  0  0  0  0
    9.2778    7.4559   43.7916 O   0  0  0  0  0  0
   11.3919    8.1457   44.3330 O   0  0  0  0  0  0
   12.0563    7.2137   41.6654 N   0  0  0  0  0  0
   11.6626    8.1867   40.8229 C   0  0  0  0  0  0
   10.5165    8.6287   40.7907 O   0  0  0  0  0  0
   12.7153    8.7447   39.8592 C   0  0  0  0  0  0
   13.2533    7.7172   38.8226 C   0  0  0  0  0  0
   13.0983    8.1673   37.3400 C   0  0  2  0  0  0
   13.5787    7.1340   36.2913 C   0  0  0  0  0  0
   14.1915    7.4279   35.2826 O   0  0  0  0  0  0
   13.1584    5.8759   36.6253 O   0  0  0  0  0  0
   13.6323    9.5096   37.0614 N   0  0  0  0  0  0
   14.8836    9.9663   37.2620 C   0  0  0  0  0  0
   15.7874    9.3035   37.7805 O   0  0  0  0  0  0
   15.1402   11.3600   36.7463 C   0  0  0  0  0  0
   14.1123   12.3050   36.6403 C   0  0  0  0  0  0
   14.3521   13.5486   36.0693 C   0  0  0  0  0  0
   15.6238   13.9020   35.5900 C   0  0  0  0  0  0
   16.6585   12.9669   35.7631 C   0  0  0  0  0  0
   16.4224   11.7174   36.3247 C   0  0  0  0  0  0
   15.8402   15.1210   34.8717 N   0  0  0  0  0  0
   17.1769   15.4579   34.3420 C   0  0  0  0  0  0
   17.5980   14.6534   33.1759 C   0  0  0  0  0  0
   17.9116   14.0059   32.1905 C   0  0  0  0  0  0
   14.8969   16.2481   35.0103 C   0  0  0  0  0  0
   14.4155   16.9016   33.7111 C   0  0  0  0  0  0
   13.6685   18.0790   33.8229 C   0  0  0  0  0  0
   13.1665   18.7212   32.6961 C   0  0  0  0  0  0
   13.4331   18.2021   31.4400 C   0  0  0  0  0  0
   14.1982   17.0404   31.2951 C   0  0  0  0  0  0
   14.6694   16.3747   32.4354 C   0  0  0  0  0  0
   14.5178   16.5267   29.8974 C   0  0  0  0  0  0
   14.0262   17.3095   28.8432 N   0  0  0  0  0  0
   13.3154   18.3506   29.0487 C   0  0  0  0  0  0
   12.9645   18.8319   30.2891 N   0  0  0  0  0  0
   12.8446   19.1619   27.8688 C   0  0  0  0  0  0
   15.1746   15.4967   29.7608 O   0  0  0  0  0  0
   11.8589    5.8520   43.2118 H   0  0  0  0  0  0
   12.0273    8.2558   37.1509 H   0  0  0  0  0  0
   10.1468    3.8397   40.5268 H   0  0  0  0  0  0
   11.4520    4.9624   40.1872 H   0  0  0  0  0  0
   11.5721    3.8590   41.5584 H   0  0  0  0  0  0
    9.6022    5.0077   42.6382 H   0  0  0  0  0  0
    9.5024    6.1130   41.2998 H   0  0  0  0  0  0
   12.3002    7.8769   44.1538 H   0  0  0  0  0  0
   13.0122    6.8959   41.6202 H   0  0  0  0  0  0
   13.5340    9.2100   40.4098 H   0  0  0  0  0  0
   12.2505    9.5842   39.3421 H   0  0  0  0  0  0
   12.7538    6.7533   38.9513 H   0  0  0  0  0  0
   14.3011    7.5086   39.0464 H   0  0  0  0  0  0
   13.3973    5.2072   35.9733 H   0  0  0  0  0  0
   13.0059   10.1122   36.5491 H   0  0  0  0  0  0
   13.1076   12.0804   36.9675 H   0  0  0  0  0  0
   13.4898   14.1820   35.9497 H   0  0  0  0  0  0
   17.6649   13.1680   35.4320 H   0  0  0  0  0  0
   17.2462   11.0182   36.3966 H   0  0  0  0  0  0
   17.2052   16.4917   33.9915 H   0  0  0  0  0  0
   17.9356   15.3810   35.1214 H   0  0  0  0  0  0
   18.1909   13.4310   31.3342 H   0  0  0  0  0  0
   15.3805   17.0266   35.5912 H   0  0  0  0  0  0
   14.0105   16.0252   35.5917 H   0  0  0  0  0  0
   13.4605   18.5086   34.7909 H   0  0  0  0  0  0
   12.5945   19.6314   32.8093 H   0  0  0  0  0  0
   15.2168   15.4514   32.3277 H   0  0  0  0  0  0
   12.9920   18.6292   26.9301 H   0  0  0  0  0  0
   11.7925   19.4171   27.9640 H   0  0  0  0  0  0
   13.3834   20.0994   27.8058 H   0  0  0  0  0  0
   12.3868   19.6526   30.3719 H   0  0  0  0  0  0
  1  2  1  0  0  0
  1 44  1  0  0  0
  1 45  1  0  0  0
  1 46  1  0  0  0
  2  3  1  0  0  0
  2 47  1  0  0  0
  2 48  1  0  0  0
  3 42  1  0  0  0
  3  4  1  0  0  0
  3  7  1  0  0  0
  4  5  2  0  0  0
  4  6  1  0  0  0
  6 49  1  0  0  0
  7  8  1  0  0  0
  7 50  1  0  0  0
  8  9  2  0  0  0
  8 10  1  0  0  0
 10 11  1  0  0  0
 10 51  1  0  0  0
 10 52  1  0  0  0
 11 12  1  0  0  0
 11 53  1  0  0  0
 11 54  1  0  0  0
 12 43  1  0  0  0
 12 13  1  0  0  0
 12 16  1  0  0  0
 13 14  2  0  0  0
 13 15  1  0  0  0
 15 55  1  0  0  0
 16 17  1  0  0  0
 16 56  1  0  0  0
 17 18  2  0  0  0
 17 19  1  0  0  0
 19 24  1  0  0  0
 19 20  2  0  0  0
 20 21  1  0  0  0
 20 57  1  0  0  0
 21 22  2  0  0  0
 21 58  1  0  0  0
 22 23  1  0  0  0
 22 25  1  0  0  0
 23 24  2  0  0  0
 23 59  1  0  0  0
 24 60  1  0  0  0
 25 26  1  0  0  0
 25 29  1  0  0  0
 26 27  1  0  0  0
 26 61  1  0  0  0
 26 62  1  0  0  0
 27 28  3  0  0  0
 28 63  1  0  0  0
 29 64  1  0  0  0
 29 65  1  0  0  0
 29 30  1  0  0  0
 30 35  2  0  0  0
 30 31  1  0  0  0
 31 66  1  0  0  0
 31 32  2  0  0  0
 32 67  1  0  0  0
 32 33  1  0  0  0
 33 34  2  0  0  0
 33 39  1  0  0  0
 34 36  1  0  0  0
 34 35  1  0  0  0
 35 68  1  0  0  0
 36 41  2  0  0  0
 36 37  1  0  0  0
 37 38  2  0  0  0
 38 39  1  0  0  0
 38 40  1  0  0  0
 39 72  1  0  0  0
 40 69  1  0  0  0
 40 70  1  0  0  0
 40 71  1  0  0  0
M  END
> <s_m_entry_id>
41643

> <s_m_entry_name>
ligand_docking-pose.3

> <s_m_Source_Path>
/home/csk/Desktop/cluster/DUD-E-result/tysy

> <s_m_Source_File>
ligand_docking-pose.sdf

> <i_m_Source_File_Index>
3

> <i_lp_mmshare_version>
53161

> <i_f3d_flags>
0

> <r_lp_tautomer_probability>
0.116051

> <s_lp_Force_Field>
OPLS_2005

> <r_lp_Energy>
18.758213

> <b_lp_Chiralities_Consistent>
1

> <s_lp_Variant>
183696-2

> <s_i_glide_gridfile>
glide-grid_1syn

> <i_i_glide_lignum>
752

> <i_i_glide_rotatable_bonds>
18

> <r_i_docking_score>
-9.72602276693174

> <r_i_glide_ligand_efficiency>
-0.23722006748614

> <r_i_glide_ligand_efficiency_sa>
-0.817986325457912

> <r_i_glide_ligand_efficiency_ln>
-2.06340809672442

> <r_i_glide_gscore>
-9.72602276693174

> <r_i_glide_lipo>
-3.51134598404226

> <r_i_glide_hbond>
-0.64

> <r_i_glide_metal>
0

> <r_i_glide_rewards>
-1.0006619936833

> <r_i_glide_evdw>
-57.5137519836426

> <r_i_glide_ecoul>
-17.241340637207

> <r_i_glide_erotb>
0.90791194642028

> <r_i_glide_esite>
-0.0200380408632694

> <r_i_glide_emodel>
-110.823805380556

> <r_i_glide_energy>
-74.7550926208496

> <r_i_glide_einternal>
11.3221797943115

> <i_i_glide_confnum>
7

> <i_i_glide_posenum>
174

> <r_i_glide_eff_state_penalty>
0

> <s_user_duplicate_titles>
183696

> <s_m_subgroup_title>
dock_pv

> <s_m_subgroupid>
dock_pv1

> <b_m_subgroup_collapsed>
0

$$$$
237539
                    3D
 Schrodinger Suite 2021-1.
 58 60  0  0  1  0            999 V2000
   18.2004   14.3846   32.1008 C   0  0  0  0  0  0
   17.8463   15.0264   33.0771 C   0  0  0  0  0  0
   17.3826   15.7717   34.2636 C   0  0  0  0  0  0
   16.0237   15.4278   34.7390 N   0  0  0  0  0  0
   14.9973   16.4965   34.6479 C   0  0  0  0  0  0
   14.5708   16.8749   33.2239 C   0  0  0  0  0  0
   14.8919   16.0744   32.1240 C   0  0  0  0  0  0
   14.5649   16.4421   30.8291 C   0  0  0  0  0  0
   13.8252   17.6144   30.6067 C   0  0  0  0  0  0
   13.3875   18.4056   31.7149 C   0  0  0  0  0  0
   13.8023   18.0310   33.0264 C   0  0  0  0  0  0
   12.5431   19.5156   31.3829 C   0  0  0  0  0  0
   12.1974   19.7794   30.1008 N   0  0  0  0  0  0
   12.7741   19.0279   29.1469 C   0  0  0  0  0  0
   13.5503   17.9452   29.3217 N   0  0  0  0  0  0
   12.5920   19.4329   27.8459 N   0  0  0  0  0  0
   12.0922   20.3241   32.3912 O   0  0  0  0  0  0
   15.7925   14.2054   35.4465 C   0  0  0  0  0  0
   14.5702   13.9195   36.0758 C   0  0  0  0  0  0
   14.3238   12.6837   36.6653 C   0  0  0  0  0  0
   15.2825   11.6617   36.6370 C   0  0  0  0  0  0
   16.5241   11.9338   36.0341 C   0  0  0  0  0  0
   16.7683   13.1927   35.4881 C   0  0  0  0  0  0
   17.7878   10.7515   35.8912 Cl  0  0  0  0  0  0
   14.9537   10.3067   37.2178 C   0  0  0  0  0  0
   15.7921    9.6439   37.8302 O   0  0  0  0  0  0
   13.6964    9.8781   37.0085 N   0  0  0  0  0  0
   13.1789    8.5859   37.4567 C   0  0  2  0  0  0
   13.5956    7.4882   36.4352 C   0  0  0  0  0  0
   13.3625    6.0363   36.8942 C   0  0  0  0  0  0
   14.4569    5.5069   37.8325 C   0  0  0  0  0  0
   14.9882    6.1724   38.7179 O   0  0  0  0  0  0
   14.7675    4.2013   37.5943 O   0  0  0  0  0  0
   11.6752    8.7162   37.7853 C   0  0  0  0  0  0
   11.2731    9.2257   38.8104 O   0  0  0  0  0  0
   10.8902    8.2099   36.7897 O   0  0  0  0  0  0
   18.5348   13.8285   31.2532 H   0  0  0  0  0  0
   17.4356   16.8269   33.9905 H   0  0  0  0  0  0
   18.1162   15.6334   35.0621 H   0  0  0  0  0  0
   15.3886   17.3890   35.1355 H   0  0  0  0  0  0
   14.0799   16.2898   35.1886 H   0  0  0  0  0  0
   15.3932   15.1322   32.2584 H   0  0  0  0  0  0
   14.8584   15.8239   29.9920 H   0  0  0  0  0  0
   13.5065   18.6328   33.8753 H   0  0  0  0  0  0
   12.9038   18.7585   27.1665 H   0  0  0  0  0  0
   11.6736   19.8479   27.7296 H   0  0  0  0  0  0
   12.5061   20.2280   33.2592 H   0  0  0  0  0  0
   13.7580   14.6234   36.1192 H   0  0  0  0  0  0
   13.3588   12.5291   37.1292 H   0  0  0  0  0  0
   17.7396   13.3340   35.0459 H   0  0  0  0  0  0
   13.0531   10.4701   36.5057 H   0  0  0  0  0  0
   13.6544    8.3543   38.4129 H   0  0  0  0  0  0
   13.1111    7.6525   35.4714 H   0  0  0  0  0  0
   14.6596    7.5952   36.2107 H   0  0  0  0  0  0
   12.3894    5.9098   37.3684 H   0  0  0  0  0  0
   13.3426    5.4281   35.9924 H   0  0  0  0  0  0
   14.2796    3.8282   36.8459 H   0  0  0  0  0  0
   11.3913    7.8511   36.0542 H   0  0  0  0  0  0
  1  2  3  0  0  0
  1 37  1  0  0  0
  2  3  1  0  0  0
  3  4  1  0  0  0
  3 38  1  0  0  0
  3 39  1  0  0  0
  4  5  1  0  0  0
  4 18  1  0  0  0
  5  6  1  0  0  0
  5 40  1  0  0  0
  5 41  1  0  0  0
  6 11  1  0  0  0
  6  7  2  0  0  0
  7  8  1  0  0  0
  7 42  1  0  0  0
  8  9  2  0  0  0
  8 43  1  0  0  0
  9 15  1  0  0  0
  9 10  1  0  0  0
 10 11  2  0  0  0
 10 12  1  0  0  0
 11 44  1  0  0  0
 12 13  2  0  0  0
 12 17  1  0  0  0
 13 14  1  0  0  0
 14 15  2  0  0  0
 14 16  1  0  0  0
 16 45  1  0  0  0
 16 46  1  0  0  0
 17 47  1  0  0  0
 18 23  1  0  0  0
 18 19  2  0  0  0
 19 20  1  0  0  0
 19 48  1  0  0  0
 20 21  2  0  0  0
 20 49  1  0  0  0
 21 22  1  0  0  0
 21 25  1  0  0  0
 22 23  2  0  0  0
 22 24  1  0  0  0
 23 50  1  0  0  0
 25 26  2  0  0  0
 25 27  1  0  0  0
 27 28  1  0  0  0
 27 51  1  0  0  0
 28 29  1  0  0  0
 28 34  1  0  0  0
 28 52  1  0  0  0
 29 30  1  0  0  0
 29 53  1  0  0  0
 29 54  1  0  0  0
 30 31  1  0  0  0
 30 55  1  0  0  0
 30 56  1  0  0  0
 31 32  2  0  0  0
 31 33  1  0  0  0
 33 57  1  0  0  0
 34 35  2  0  0  0
 34 36  1  0  0  0
 36 58  1  0  0  0
M  END
> <s_m_entry_id>
41648

> <s_m_entry_name>
ligand_docking-pose.8

> <s_m_Source_Path>
/home/csk/Desktop/cluster/DUD-E-result/tysy

> <s_m_Source_File>
ligand_docking-pose.sdf

> <i_m_Source_File_Index>
8

> <i_lp_mmshare_version>
53161

> <i_f3d_flags>
0

> <r_lp_tautomer_probability>
1

> <s_lp_Force_Field>
OPLS_2005

> <r_lp_Energy>
13.261425

> <b_lp_Chiralities_Consistent>
1

> <s_lp_Variant>
237539-1

> <s_i_glide_gridfile>
glide-grid_1syn

> <i_i_glide_lignum>
802

> <i_i_glide_rotatable_bonds>
15

> <r_i_docking_score>
-9.57352326655329

> <r_i_glide_ligand_efficiency>
-0.265931201848703

> <r_i_glide_ligand_efficiency_sa>
-0.878085480666649

> <r_i_glide_ligand_efficiency_ln>
-2.08868413005358

> <r_i_glide_gscore>
-9.57352326655329

> <r_i_glide_lipo>
-4.06083948159573

> <r_i_glide_hbond>
-0.602635572056844

> <r_i_glide_metal>
0

> <r_i_glide_rewards>
-0.908458199652436

> <r_i_glide_evdw>
-54.295337677002

> <r_i_glide_ecoul>
-14.6653900146484

> <r_i_glide_erotb>
0.938555176336672

> <r_i_glide_esite>
-0.0255698035375849

> <r_i_glide_emodel>
-106.409236956244

> <r_i_glide_energy>
-68.9607276916504

> <r_i_glide_einternal>
8.96933746337891

> <i_i_glide_confnum>
47

> <i_i_glide_posenum>
277

> <r_i_glide_eff_state_penalty>
0

> <s_user_duplicate_titles>
237539

> <s_m_subgroup_title>
dock_pv

> <s_m_subgroupid>
dock_pv1

> <b_m_subgroup_collapsed>
0

$$$$
285872
                    3D
 Schrodinger Suite 2021-1.
 57 59  0  0  1  0            999 V2000
   16.3595   14.2278   35.8410 C   0  0  0  0  0  0
   15.5245   13.2912   36.4428 C   0  0  0  0  0  0
   15.8308   11.9242   36.3916 C   0  0  0  0  0  0
   16.9950   11.5153   35.7186 C   0  0  0  0  0  0
   17.8242   12.4504   35.1098 C   0  0  0  0  0  0
   17.5067   13.8067   35.1671 C   0  0  0  0  0  0
   18.4084   14.8140   34.4674 C   0  0  0  0  0  0
   18.2402   14.7975   32.9331 C   0  0  0  0  0  0
   16.8371   15.1896   32.4113 C   0  0  1  0  0  0
   16.3207   16.5677   32.9022 C   0  0  0  0  0  0
   15.0655   17.0281   32.1541 C   0  0  0  0  0  0
   14.7345   16.4744   30.9019 C   0  0  0  0  0  0
   13.6684   16.8706   30.1710 N   0  0  0  0  0  0
   12.9089   17.8416   30.7127 C   0  0  0  0  0  0
   13.1235   18.4434   31.9015 N   0  0  0  0  0  0
   14.2044   18.0457   32.6202 C   0  0  0  0  0  0
   14.5147   18.6280   33.8197 O   0  0  0  0  0  0
   11.7920   18.2280   29.9909 N   0  0  0  0  0  0
   15.4476   15.3995   30.3526 N   0  0  0  0  0  0
   16.7666   15.0475   30.8752 C   0  0  0  0  0  0
   14.9075   10.9260   37.0566 C   0  0  0  0  0  0
   14.0596   11.2836   37.8763 O   0  0  0  0  0  0
   15.0481    9.6512   36.6588 N   0  0  0  0  0  0
   14.1745    8.5228   36.9949 C   0  0  2  0  0  0
   15.0520    7.3514   37.4957 C   0  0  0  0  0  0
   14.3174    6.0562   37.9161 C   0  0  0  0  0  0
   15.2997    4.9862   38.4049 C   0  0  0  0  0  0
   15.9879    5.1105   39.4168 O   0  0  0  0  0  0
   15.3559    3.8915   37.5911 O   0  0  0  0  0  0
   13.4293    8.1388   35.7080 C   0  0  0  0  0  0
   13.9122    8.2280   34.5991 O   0  0  0  0  0  0
   12.1922    7.6560   35.9909 O   0  0  0  0  0  0
   16.1073   15.2760   35.9023 H   0  0  0  0  0  0
   14.6405   13.6427   36.9565 H   0  0  0  0  0  0
   17.2861   10.4772   35.6584 H   0  0  0  0  0  0
   18.7123   12.1199   34.5885 H   0  0  0  0  0  0
   18.2473   15.8169   34.8649 H   0  0  0  0  0  0
   19.4432   14.5780   34.7193 H   0  0  0  0  0  0
   18.9951   15.4280   32.4780 H   0  0  0  0  0  0
   18.4837   13.7949   32.5731 H   0  0  0  0  0  0
   16.1920   14.4259   32.8213 H   0  0  0  0  0  0
   16.1146   16.5283   33.9709 H   0  0  0  0  0  0
   17.0909   17.3266   32.7910 H   0  0  0  0  0  0
   13.8653   19.3046   34.0509 H   0  0  0  0  0  0
   11.1702   18.9430   30.3540 H   0  0  0  0  0  0
   11.6486   17.8399   29.0743 H   0  0  0  0  0  0
   15.2793   15.1552   29.3878 H   0  0  0  0  0  0
   17.5448   15.6303   30.3905 H   0  0  0  0  0  0
   16.9861   14.0198   30.5814 H   0  0  0  0  0  0
   15.6946    9.4726   35.9066 H   0  0  0  0  0  0
   13.4584    8.8143   37.7660 H   0  0  0  0  0  0
   15.6508    7.6989   38.3398 H   0  0  0  0  0  0
   15.7616    7.1060   36.7024 H   0  0  0  0  0  0
   13.7211    5.6597   37.0945 H   0  0  0  0  0  0
   13.6210    6.2745   38.7256 H   0  0  0  0  0  0
   14.7435    3.9056   36.8451 H   0  0  0  0  0  0
   11.7920    7.4242   35.1344 H   0  0  0  0  0  0
  1  6  1  0  0  0
  1  2  2  0  0  0
  1 33  1  0  0  0
  2  3  1  0  0  0
  2 34  1  0  0  0
  3  4  2  0  0  0
  3 21  1  0  0  0
  4  5  1  0  0  0
  4 35  1  0  0  0
  5  6  2  0  0  0
  5 36  1  0  0  0
  6  7  1  0  0  0
  7  8  1  0  0  0
  7 37  1  0  0  0
  7 38  1  0  0  0
  8  9  1  0  0  0
  8 39  1  0  0  0
  8 40  1  0  0  0
  9 20  1  0  0  0
  9 10  1  0  0  0
  9 41  1  0  0  0
 10 11  1  0  0  0
 10 42  1  0  0  0
 10 43  1  0  0  0
 11 16  2  0  0  0
 11 12  1  0  0  0
 12 13  2  0  0  0
 12 19  1  0  0  0
 13 14  1  0  0  0
 14 15  2  0  0  0
 14 18  1  0  0  0
 15 16  1  0  0  0
 16 17  1  0  0  0
 17 44  1  0  0  0
 18 45  1  0  0  0
 18 46  1  0  0  0
 19 20  1  0  0  0
 19 47  1  0  0  0
 20 48  1  0  0  0
 20 49  1  0  0  0
 21 22  2  0  0  0
 21 23  1  0  0  0
 23 24  1  0  0  0
 23 50  1  0  0  0
 24 25  1  0  0  0
 24 30  1  0  0  0
 24 51  1  0  0  0
 25 26  1  0  0  0
 25 52  1  0  0  0
 25 53  1  0  0  0
 26 27  1  0  0  0
 26 54  1  0  0  0
 26 55  1  0  0  0
 27 28  2  0  0  0
 27 29  1  0  0  0
 29 56  1  0  0  0
 30 31  2  0  0  0
 30 32  1  0  0  0
 32 57  1  0  0  0
M  END
> <s_m_entry_id>
41649

> <s_m_entry_name>
ligand_docking-pose.9

> <s_m_Source_Path>
/home/csk/Desktop/cluster/DUD-E-result/tysy

> <s_m_Source_File>
ligand_docking-pose.sdf

> <i_m_Source_File_Index>
9

> <i_lp_mmshare_version>
53161

> <i_f3d_flags>
0

> <r_lp_tautomer_probability>
0.0160306447209791

> <s_lp_Force_Field>
OPLS_2005

> <r_lp_Energy>
7.390321

> <b_lp_Chiralities_Consistent>
1

> <s_lp_Variant>
285872-6

> <s_i_glide_gridfile>
glide-grid_1syn

> <i_i_glide_lignum>
32

> <i_i_glide_rotatable_bonds>
13

> <r_i_docking_score>
-9.48845483009146

> <r_i_glide_ligand_efficiency>
-0.296514213440358

> <r_i_glide_ligand_efficiency_sa>
-0.941373947589978

> <r_i_glide_ligand_efficiency_ln>
-2.12472368196758

> <r_i_glide_gscore>
-9.48845483009146

> <r_i_glide_lipo>
-3.54707882393246

> <r_i_glide_hbond>
-0.860542514930447

> <r_i_glide_metal>
0

> <r_i_glide_rewards>
-0.929565637383545

> <r_i_glide_evdw>
-48.4704055786133

> <r_i_glide_ecoul>
-17.9507808685303

> <r_i_glide_erotb>
1.01661454436344

> <r_i_glide_esite>
-0.0517449889982401

> <r_i_glide_emodel>
-101.47755405476

> <r_i_glide_energy>
-66.4211864471436

> <r_i_glide_einternal>
6.07651996612549

> <i_i_glide_confnum>
253

> <i_i_glide_posenum>
88

> <r_i_glide_eff_state_penalty>
0

> <s_user_duplicate_titles>
285872

> <s_m_subgroup_title>
dock_pv

> <s_m_subgroupid>
dock_pv1

> <b_m_subgroup_collapsed>
0

$$$$
237572
                    3D
 Schrodinger Suite 2021-1.
 61 63  0  0  1  0            999 V2000
   14.6654   10.3023   36.4822 C   0  0  0  0  0  0
   15.1183   11.7585   36.3876 C   0  0  0  0  0  0
   16.0870   12.0647   35.4349 C   0  0  0  0  0  0
   16.5922   13.3614   35.2532 C   0  0  0  0  0  0
   15.9811   14.3825   35.9893 C   0  0  0  0  0  0
   14.9929   14.1050   36.9304 C   0  0  0  0  0  0
   14.5974   12.7851   37.1977 C   0  0  0  0  0  0
   13.7483   12.4891   38.4132 C   0  0  0  0  0  0
   13.8720   11.4325   39.0341 O   0  0  0  0  0  0
   12.9052   13.4603   38.8036 N   0  0  0  0  0  0
   12.0792   13.4466   40.0199 C   0  0  1  0  0  0
   11.0785   12.2533   40.0254 C   0  0  0  0  0  0
   10.0089   12.2968   38.9067 C   0  0  0  0  0  0
    9.1130   13.5325   38.9890 C   0  0  0  0  0  0
    8.9922   14.2279   39.9944 O   0  0  0  0  0  0
    8.4920   13.8275   37.8163 O   0  0  0  0  0  0
   12.8684   13.6273   41.3354 C   0  0  0  0  0  0
   12.6131   13.0379   42.3653 O   0  0  0  0  0  0
   13.7920   14.6214   41.1925 O   0  0  0  0  0  0
   17.6844   13.6270   34.3692 N   0  0  0  0  0  0
   18.6046   12.5834   33.8593 C   0  0  0  0  0  0
   18.9923   11.5237   34.8151 C   0  0  0  0  0  0
   19.2864   10.6278   35.5909 C   0  0  0  0  0  0
   17.9310   14.9916   33.8709 C   0  0  0  0  0  0
   16.8470   15.4908   32.9163 C   0  0  0  0  0  0
   16.7391   14.9552   31.6310 C   0  0  0  0  0  0
   15.7820   15.4298   30.7340 C   0  0  0  0  0  0
   14.9006   16.4724   31.1150 C   0  0  0  0  0  0
   15.0068   17.0307   32.4249 C   0  0  0  0  0  0
   15.9981   16.5268   33.3086 C   0  0  0  0  0  0
   14.0917   18.0801   32.7423 C   0  0  0  0  0  0
   13.1692   18.5099   31.8528 N   0  0  0  0  0  0
   13.1577   17.9132   30.6438 C   0  0  0  0  0  0
   13.9742   16.9198   30.2217 N   0  0  0  0  0  0
   12.2011   18.3567   29.7484 N   0  0  0  0  0  0
   14.1918   18.6279   33.9918 O   0  0  0  0  0  0
   13.5834   10.2449   36.6054 H   0  0  0  0  0  0
   14.8995    9.7404   35.5789 H   0  0  0  0  0  0
   15.1320    9.8070   37.3328 H   0  0  0  0  0  0
   16.4459   11.2605   34.8169 H   0  0  0  0  0  0
   16.3007   15.4074   35.9021 H   0  0  0  0  0  0
   14.6173   14.9398   37.5083 H   0  0  0  0  0  0
   12.7795   14.2464   38.1849 H   0  0  0  0  0  0
   11.4977   14.3557   39.9940 H   0  0  0  0  0  0
   11.5999   11.2991   39.9620 H   0  0  0  0  0  0
   10.5850   12.2182   40.9908 H   0  0  0  0  0  0
   10.4901   12.2722   37.9288 H   0  0  0  0  0  0
    9.3746   11.4120   38.9646 H   0  0  0  0  0  0
    8.0201   14.6650   37.9171 H   0  0  0  0  0  0
   13.8752   14.8757   40.2712 H   0  0  0  0  0  0
   18.1912   12.0958   32.9789 H   0  0  0  0  0  0
   19.5453   13.0307   33.5401 H   0  0  0  0  0  0
   19.5348    9.8287   36.2505 H   0  0  0  0  0  0
   18.8733   15.0366   33.3213 H   0  0  0  0  0  0
   18.0734   15.6786   34.7052 H   0  0  0  0  0  0
   17.4046   14.1597   31.3249 H   0  0  0  0  0  0
   15.7032   15.0035   29.7436 H   0  0  0  0  0  0
   16.0838   16.9602   34.2918 H   0  0  0  0  0  0
   12.1712   17.9476   28.8302 H   0  0  0  0  0  0
   11.5105   19.0316   30.0525 H   0  0  0  0  0  0
   13.5625   19.3494   34.1340 H   0  0  0  0  0  0
  1  2  1  0  0  0
  1 37  1  0  0  0
  1 38  1  0  0  0
  1 39  1  0  0  0
  2  7  1  0  0  0
  2  3  2  0  0  0
  3  4  1  0  0  0
  3 40  1  0  0  0
  4  5  2  0  0  0
  4 20  1  0  0  0
  5  6  1  0  0  0
  5 41  1  0  0  0
  6  7  2  0  0  0
  6 42  1  0  0  0
  7  8  1  0  0  0
  8  9  2  0  0  0
  8 10  1  0  0  0
 10 11  1  0  0  0
 10 43  1  0  0  0
 11 12  1  0  0  0
 11 17  1  0  0  0
 11 44  1  0  0  0
 12 13  1  0  0  0
 12 45  1  0  0  0
 12 46  1  0  0  0
 13 14  1  0  0  0
 13 47  1  0  0  0
 13 48  1  0  0  0
 14 15  2  0  0  0
 14 16  1  0  0  0
 16 49  1  0  0  0
 17 18  2  0  0  0
 17 19  1  0  0  0
 19 50  1  0  0  0
 20 21  1  0  0  0
 20 24  1  0  0  0
 21 22  1  0  0  0
 21 51  1  0  0  0
 21 52  1  0  0  0
 22 23  3  0  0  0
 23 53  1  0  0  0
 24 25  1  0  0  0
 24 54  1  0  0  0
 24 55  1  0  0  0
 25 30  1  0  0  0
 25 26  2  0  0  0
 26 27  1  0  0  0
 26 56  1  0  0  0
 27 28  2  0  0  0
 27 57  1  0  0  0
 28 34  1  0  0  0
 28 29  1  0  0  0
 29 30  2  0  0  0
 29 31  1  0  0  0
 30 58  1  0  0  0
 31 32  2  0  0  0
 31 36  1  0  0  0
 32 33  1  0  0  0
 33 34  2  0  0  0
 33 35  1  0  0  0
 35 59  1  0  0  0
 35 60  1  0  0  0
 36 61  1  0  0  0
M  END
> <s_m_entry_id>
41650

> <s_m_entry_name>
ligand_docking-pose.10

> <s_m_Source_Path>
/home/csk/Desktop/cluster/DUD-E-result/tysy

> <s_m_Source_File>
ligand_docking-pose.sdf

> <i_m_Source_File_Index>
10

> <i_lp_mmshare_version>
53161

> <i_f3d_flags>
0

> <r_lp_tautomer_probability>
1

> <s_lp_Force_Field>
OPLS_2005

> <r_lp_Energy>
13.25269

> <b_lp_Chiralities_Consistent>
1

> <s_lp_Variant>
237572-2

> <s_i_glide_gridfile>
glide-grid_1syn

> <i_i_glide_lignum>
433

> <i_i_glide_rotatable_bonds>
15

> <r_i_docking_score>
-9.31739775240773

> <r_i_glide_ligand_efficiency>
-0.258816604233548

> <r_i_glide_ligand_efficiency_sa>
-0.854593596964311

> <r_i_glide_ligand_efficiency_ln>
-2.03280446257873

> <r_i_glide_gscore>
-9.31739775240773

> <r_i_glide_lipo>
-3.60278821633818

> <r_i_glide_hbond>
-0.801500743512894

> <r_i_glide_metal>
0

> <r_i_glide_rewards>
-1.04454557520105

> <r_i_glide_evdw>
-54.8760375976562

> <r_i_glide_ecoul>
-13.6317586898804

> <r_i_glide_erotb>
1.0112899525708

> <r_i_glide_esite>
-0.0912874865615304

> <r_i_glide_emodel>
-109.101846437032

> <r_i_glide_energy>
-68.5077962875366

> <r_i_glide_einternal>
7.37998390197754

> <i_i_glide_confnum>
8

> <i_i_glide_posenum>
77

> <r_i_glide_eff_state_penalty>
0

> <s_user_duplicate_titles>
237572

> <s_m_subgroup_title>
dock_pv

> <s_m_subgroupid>
dock_pv1

> <b_m_subgroup_collapsed>
0

$$$$
237305
                    3D
 Schrodinger Suite 2021-1.
 58 60  0  0  1  0            999 V2000
   20.9740   14.2280   34.3911 C   0  0  0  0  0  0
   19.8861   14.7826   34.3984 C   0  0  0  0  0  0
   18.5773   15.4575   34.4789 C   0  0  0  0  0  0
   17.4614   14.6749   33.9477 N   0  0  0  0  0  0
   17.3748   14.4240   32.4993 C   0  0  0  0  0  0
   16.4008   15.3242   31.7314 C   0  0  0  0  0  0
   16.1885   15.0389   30.3824 C   0  0  0  0  0  0
   15.2918   15.7802   29.6193 C   0  0  0  0  0  0
   14.5575   16.8338   30.2090 C   0  0  0  0  0  0
   14.7483   17.1370   31.5910 C   0  0  0  0  0  0
   15.7108   16.3896   32.3240 C   0  0  0  0  0  0
   13.9399   18.1927   32.1234 C   0  0  0  0  0  0
   13.0525   18.8601   31.3514 N   0  0  0  0  0  0
   13.0050   18.5279   30.0449 C   0  0  0  0  0  0
   13.6950   17.5423   29.4324 N   0  0  0  0  0  0
   12.1919   19.2984   29.2402 N   0  0  0  0  0  0
   14.1064   18.5102   33.4463 O   0  0  0  0  0  0
   16.8562   13.7424   34.8259 C   0  0  0  0  0  0
   15.7409   14.1318   35.5959 C   0  0  0  0  0  0
   15.0712   13.2049   36.3946 C   0  0  0  0  0  0
   15.4840   11.8678   36.4618 C   0  0  0  0  0  0
   16.6032   11.4867   35.7204 C   0  0  0  0  0  0
   17.2835   12.3977   34.9152 C   0  0  0  0  0  0
   18.5922   11.7518   33.9908 Cl  0  0  0  0  0  0
   14.7415   10.8412   37.2850 C   0  0  0  0  0  0
   14.8500    9.6370   37.0440 O   0  0  0  0  0  0
   13.9902   11.3324   38.2884 N   0  0  0  0  0  0
   13.1618   10.5926   39.2509 C   0  0  2  0  0  0
   12.5404   11.6142   40.2466 C   0  0  0  0  0  0
   13.5807   12.4221   41.0628 C   0  0  0  0  0  0
   12.9816   13.4294   42.0367 C   0  0  0  0  0  0
   11.8194   13.8278   41.9903 O   0  0  0  0  0  0
   13.8791   13.8284   42.9823 O   0  0  0  0  0  0
   13.8928    9.4429   39.9899 C   0  0  0  0  0  0
   15.0853    9.4186   40.2131 O   0  0  0  0  0  0
   12.9895    8.5006   40.3901 O   0  0  0  0  0  0
   15.1061   15.7417   35.5910 Cl  0  0  0  0  0  0
   21.9304   13.7547   34.3915 H   0  0  0  0  0  0
   18.6518   16.3924   33.9222 H   0  0  0  0  0  0
   18.3928   15.7424   35.5155 H   0  0  0  0  0  0
   17.0850   13.3891   32.3099 H   0  0  0  0  0  0
   18.3635   14.5370   32.0494 H   0  0  0  0  0  0
   16.7228   14.2227   29.9161 H   0  0  0  0  0  0
   15.1435   15.5488   28.5727 H   0  0  0  0  0  0
   15.8969   16.6594   33.3483 H   0  0  0  0  0  0
   12.0413   18.9817   28.2970 H   0  0  0  0  0  0
   11.4693   19.8279   29.7096 H   0  0  0  0  0  0
   13.5406   19.2471   33.7064 H   0  0  0  0  0  0
   14.2043   13.5464   36.9404 H   0  0  0  0  0  0
   16.9450   10.4600   35.7442 H   0  0  0  0  0  0
   13.9993   12.3320   38.4171 H   0  0  0  0  0  0
   12.3627   10.1487   38.6558 H   0  0  0  0  0  0
   11.9065   12.3099   39.6931 H   0  0  0  0  0  0
   11.8627   11.0996   40.9286 H   0  0  0  0  0  0
   14.2028   11.7328   41.6309 H   0  0  0  0  0  0
   14.2277   12.9812   40.3897 H   0  0  0  0  0  0
   14.7381   13.4055   42.8977 H   0  0  0  0  0  0
   12.1025    8.6609   40.0663 H   0  0  0  0  0  0
  1  2  3  0  0  0
  1 38  1  0  0  0
  2  3  1  0  0  0
  3  4  1  0  0  0
  3 39  1  0  0  0
  3 40  1  0  0  0
  4  5  1  0  0  0
  4 18  1  0  0  0
  5  6  1  0  0  0
  5 41  1  0  0  0
  5 42  1  0  0  0
  6 11  1  0  0  0
  6  7  2  0  0  0
  7  8  1  0  0  0
  7 43  1  0  0  0
  8  9  2  0  0  0
  8 44  1  0  0  0
  9 15  1  0  0  0
  9 10  1  0  0  0
 10 11  2  0  0  0
 10 12  1  0  0  0
 11 45  1  0  0  0
 12 13  2  0  0  0
 12 17  1  0  0  0
 13 14  1  0  0  0
 14 15  2  0  0  0
 14 16  1  0  0  0
 16 46  1  0  0  0
 16 47  1  0  0  0
 17 48  1  0  0  0
 18 23  1  0  0  0
 18 19  2  0  0  0
 19 20  1  0  0  0
 19 37  1  0  0  0
 20 21  2  0  0  0
 20 49  1  0  0  0
 21 22  1  0  0  0
 21 25  1  0  0  0
 22 23  2  0  0  0
 22 50  1  0  0  0
 23 24  1  0  0  0
 25 26  2  0  0  0
 25 27  1  0  0  0
 27 28  1  0  0  0
 27 51  1  0  0  0
 28 29  1  0  0  0
 28 34  1  0  0  0
 28 52  1  0  0  0
 29 30  1  0  0  0
 29 53  1  0  0  0
 29 54  1  0  0  0
 30 31  1  0  0  0
 30 55  1  0  0  0
 30 56  1  0  0  0
 31 32  2  0  0  0
 31 33  1  0  0  0
 33 57  1  0  0  0
 34 35  2  0  0  0
 34 36  1  0  0  0
 36 58  1  0  0  0
M  END
> <s_m_entry_id>
41658

> <s_m_entry_name>
ligand_docking-pose.18

> <s_m_Source_Path>
/home/csk/Desktop/cluster/DUD-E-result/tysy

> <s_m_Source_File>
ligand_docking-pose.sdf

> <i_m_Source_File_Index>
18

> <i_lp_mmshare_version>
53161

> <i_f3d_flags>
0

> <r_lp_tautomer_probability>
1

> <s_lp_Force_Field>
OPLS_2005

> <r_lp_Energy>
15.05308

> <b_lp_Chiralities_Consistent>
1

> <s_lp_Variant>
237305-1

> <s_i_glide_gridfile>
glide-grid_1syn

> <i_i_glide_lignum>
806

> <i_i_glide_rotatable_bonds>
15

> <r_i_docking_score>
-9.08328724587251

> <r_i_glide_ligand_efficiency>
-0.245494249888446

> <r_i_glide_ligand_efficiency_sa>
-0.818041302947086

> <r_i_glide_ligand_efficiency_ln>
-1.96995206116422

> <r_i_glide_gscore>
-9.08328724587251

> <r_i_glide_lipo>
-3.98737851223748

> <r_i_glide_hbond>
-0.465893178948659

> <r_i_glide_metal>
0

> <r_i_glide_rewards>
-0.978876039001918

> <r_i_glide_evdw>
-62.596321105957

> <r_i_glide_ecoul>
-8.37002563476562

> <r_i_glide_erotb>
0.832521893390562

> <r_i_glide_esite>
-0.0983415085623169

> <r_i_glide_emodel>
-105.569134505031

> <r_i_glide_energy>
-70.9663467407227

> <r_i_glide_einternal>
9.75751495361328

> <i_i_glide_confnum>
31

> <i_i_glide_posenum>
379

> <r_i_glide_eff_state_penalty>
0

> <s_user_duplicate_titles>
237305

> <s_m_subgroup_title>
dock_pv

> <s_m_subgroupid>
dock_pv1

> <b_m_subgroup_collapsed>
0

$$$$
184109
                    3D
 Schrodinger Suite 2021-1.
 78 80  0  0  1  0            999 V2000
   11.9409   13.8799   36.6435 C   0  0  0  0  0  0
   11.0392   12.6505   36.4724 C   0  0  0  0  0  0
   10.0196   12.4452   37.6194 C   0  0  1  0  0  0
    8.9490   13.5651   37.5462 C   0  0  0  0  0  0
    9.4398   10.9831   37.5975 C   0  0  2  0  0  0
    8.2131   10.8413   38.5316 C   0  0  0  0  0  0
    8.0856   11.4167   39.5905 O   0  0  0  0  0  0
    7.3164    9.9594   37.9977 O   0  0  0  0  0  0
   10.4391    9.9283   37.8522 N   0  0  0  0  0  0
   11.1729    9.7274   38.9645 C   0  0  0  0  0  0
   11.1276   10.4580   39.9540 O   0  0  0  0  0  0
   12.0979    8.4959   38.9675 C   0  0  0  0  0  0
   13.5134    8.7120   38.3565 C   0  0  0  0  0  0
   13.5603    9.2423   36.8887 C   0  0  2  0  0  0
   13.3736    8.1859   35.7839 C   0  0  0  0  0  0
   14.1117    8.0355   34.8276 O   0  0  0  0  0  0
   12.1916    7.5405   35.9912 O   0  0  0  0  0  0
   14.6957   10.1037   36.5870 N   0  0  0  0  0  0
   14.8733   11.3319   37.0958 C   0  0  0  0  0  0
   14.1843   11.7899   38.0080 O   0  0  0  0  0  0
   15.8821   12.1833   36.3744 C   0  0  0  0  0  0
   16.9231   11.6238   35.6207 C   0  0  0  0  0  0
   17.7329   12.4354   34.8359 C   0  0  0  0  0  0
   17.5101   13.8187   34.7660 C   0  0  0  0  0  0
   16.5202   14.3699   35.5903 C   0  0  0  0  0  0
   15.7228   13.5696   36.3903 C   0  0  0  0  0  0
   18.2377   14.6419   33.8650 N   0  0  0  0  0  0
   19.3939   14.1345   33.1167 C   0  0  0  0  0  0
   20.6610   14.2288   33.8576 C   0  0  0  0  0  0
   21.7585   14.2272   34.3909 C   0  0  0  0  0  0
   17.9726   16.0813   33.7860 C   0  0  0  0  0  0
   16.6193   16.4364   33.1326 C   0  0  0  0  0  0
   15.8631   17.5234   33.5909 C   0  0  0  0  0  0
   14.6747   17.9034   32.9834 C   0  0  0  0  0  0
   14.2389   17.2126   31.8688 C   0  0  0  0  0  0
   14.9785   16.1371   31.3624 C   0  0  0  0  0  0
   16.1635   15.7382   32.0024 C   0  0  0  0  0  0
   14.4955   15.4428   30.0977 C   0  0  0  0  0  0
   13.2711   15.9016   29.5916 N   0  0  0  0  0  0
   12.6554   16.8993   30.1021 C   0  0  0  0  0  0
   13.0731   17.5965   31.2114 N   0  0  0  0  0  0
   11.4217   17.4068   29.4061 C   0  0  0  0  0  0
   15.1887   14.5663   29.5873 O   0  0  0  0  0  0
    9.0951   10.8123   36.5759 H   0  0  0  0  0  0
   12.7260    9.9170   36.7335 H   0  0  0  0  0  0
   12.8038   13.8124   35.9828 H   0  0  0  0  0  0
   11.4171   14.8007   36.3934 H   0  0  0  0  0  0
   12.3125   13.9690   37.6659 H   0  0  0  0  0  0
   11.6874   11.7829   36.3835 H   0  0  0  0  0  0
   10.5126   12.7241   35.5197 H   0  0  0  0  0  0
   10.5536   12.5843   38.5597 H   0  0  0  0  0  0
    8.3052   13.4318   36.6767 H   0  0  0  0  0  0
    8.3091   13.6102   38.4277 H   0  0  0  0  0  0
    9.4029   14.5518   37.4731 H   0  0  0  0  0  0
    7.6119    9.5746   37.1704 H   0  0  0  0  0  0
   10.5620    9.2712   37.0940 H   0  0  0  0  0  0
   11.5967    7.6438   38.5072 H   0  0  0  0  0  0
   12.2181    8.1883   40.0067 H   0  0  0  0  0  0
   14.0738    7.7775   38.4157 H   0  0  0  0  0  0
   14.0678    9.3728   39.0227 H   0  0  0  0  0  0
   11.9198    7.0339   35.2157 H   0  0  0  0  0  0
   15.2656    9.8040   35.8108 H   0  0  0  0  0  0
   17.1082   10.5595   35.6061 H   0  0  0  0  0  0
   18.5055   11.9484   34.2611 H   0  0  0  0  0  0
   16.3222   15.4268   35.6096 H   0  0  0  0  0  0
   14.9486   14.0398   36.9801 H   0  0  0  0  0  0
   19.2512   13.1090   32.7857 H   0  0  0  0  0  0
   19.5144   14.6994   32.1909 H   0  0  0  0  0  0
   22.7382   14.1116   34.7891 H   0  0  0  0  0  0
   18.7388   16.5412   33.1910 H   0  0  0  0  0  0
   18.1916   16.5126   34.7598 H   0  0  0  0  0  0
   16.1920   18.1410   34.3912 H   0  0  0  0  0  0
   14.1184   18.7489   33.3601 H   0  0  0  0  0  0
   16.7493   14.9140   31.6175 H   0  0  0  0  0  0
   10.9725   16.6276   28.7911 H   0  0  0  0  0  0
   10.6262   17.7744   30.0467 H   0  0  0  0  0  0
   11.7108   18.2577   28.7913 H   0  0  0  0  0  0
   12.5584   18.4023   31.5299 H   0  0  0  0  0  0
  1  2  1  0  0  0
  1 46  1  0  0  0
  1 47  1  0  0  0
  1 48  1  0  0  0
  2  3  1  0  0  0
  2 49  1  0  0  0
  2 50  1  0  0  0
  3  4  1  0  0  0
  3  5  1  0  0  0
  3 51  1  0  0  0
  4 52  1  0  0  0
  4 53  1  0  0  0
  4 54  1  0  0  0
  5 44  1  0  0  0
  5  6  1  0  0  0
  5  9  1  0  0  0
  6  7  2  0  0  0
  6  8  1  0  0  0
  8 55  1  0  0  0
  9 10  1  0  0  0
  9 56  1  0  0  0
 10 11  2  0  0  0
 10 12  1  0  0  0
 12 13  1  0  0  0
 12 57  1  0  0  0
 12 58  1  0  0  0
 13 14  1  0  0  0
 13 59  1  0  0  0
 13 60  1  0  0  0
 14 45  1  0  0  0
 14 15  1  0  0  0
 14 18  1  0  0  0
 15 16  2  0  0  0
 15 17  1  0  0  0
 17 61  1  0  0  0
 18 19  1  0  0  0
 18 62  1  0  0  0
 19 20  2  0  0  0
 19 21  1  0  0  0
 21 26  1  0  0  0
 21 22  2  0  0  0
 22 23  1  0  0  0
 22 63  1  0  0  0
 23 24  2  0  0  0
 23 64  1  0  0  0
 24 25  1  0  0  0
 24 27  1  0  0  0
 25 26  2  0  0  0
 25 65  1  0  0  0
 26 66  1  0  0  0
 27 28  1  0  0  0
 27 31  1  0  0  0
 28 29  1  0  0  0
 28 67  1  0  0  0
 28 68  1  0  0  0
 29 30  3  0  0  0
 30 69  1  0  0  0
 31 70  1  0  0  0
 31 71  1  0  0  0
 31 32  1  0  0  0
 32 37  2  0  0  0
 32 33  1  0  0  0
 33 72  1  0  0  0
 33 34  2  0  0  0
 34 73  1  0  0  0
 34 35  1  0  0  0
 35 36  2  0  0  0
 35 41  1  0  0  0
 36 38  1  0  0  0
 36 37  1  0  0  0
 37 74  1  0  0  0
 38 43  2  0  0  0
 38 39  1  0  0  0
 39 40  2  0  0  0
 40 41  1  0  0  0
 40 42  1  0  0  0
 41 78  1  0  0  0
 42 75  1  0  0  0
 42 76  1  0  0  0
 42 77  1  0  0  0
M  END
> <s_m_entry_id>
41662

> <s_m_entry_name>
ligand_docking-pose.22

> <s_m_Source_Path>
/home/csk/Desktop/cluster/DUD-E-result/tysy

> <s_m_Source_File>
ligand_docking-pose.sdf

> <i_m_Source_File_Index>
22

> <i_lp_mmshare_version>
53161

> <i_f3d_flags>
0

> <r_lp_tautomer_probability>
0.116051

> <s_lp_Force_Field>
OPLS_2005

> <r_lp_Energy>
26.425834

> <b_lp_Chiralities_Consistent>
1

> <s_lp_Variant>
184109-4

> <s_i_glide_gridfile>
glide-grid_1syn

> <i_i_glide_lignum>
744

> <i_i_glide_rotatable_bonds>
19

> <r_i_docking_score>
-8.99512295346352

> <r_i_glide_ligand_efficiency>
-0.2091889058945

> <r_i_glide_ligand_efficiency_sa>
-0.732872006246388

> <r_i_glide_ligand_efficiency_ln>
-1.8892553841235

> <r_i_glide_gscore>
-8.99512295346352

> <r_i_glide_lipo>
-4.09586406624613

> <r_i_glide_hbond>
-0.542674555002752

> <r_i_glide_metal>
0

> <r_i_glide_rewards>
-0.636296517333562

> <r_i_glide_evdw>
-49.6140213012695

> <r_i_glide_ecoul>
-13.951376914978

> <r_i_glide_erotb>
0.855987402629453

> <r_i_glide_esite>
-0.00286761520034033

> <r_i_glide_emodel>
-78.8609933665689

> <r_i_glide_energy>
-63.5653982162476

> <r_i_glide_einternal>
15.5885143280029

> <i_i_glide_confnum>
25

> <i_i_glide_posenum>
6

> <r_i_glide_eff_state_penalty>
0

> <s_user_duplicate_titles>
184109

> <s_m_subgroup_title>
dock_pv

> <s_m_subgroupid>
dock_pv1

> <b_m_subgroup_collapsed>
0

$$$$
282101
                    3D
 Schrodinger Suite 2021-1.
 69 71  0  0  1  0            999 V2000
   11.7906   20.6109   31.5615 C   0  0  0  0  0  0
   12.6335   19.3676   31.5804 C   0  0  0  0  0  0
   13.2204   19.0271   32.6602 N   0  0  0  0  0  0
   14.1073   17.9520   32.6564 C   0  0  0  0  0  0
   14.7652   17.6644   33.8411 C   0  0  0  0  0  0
   15.6901   16.6262   33.8671 C   0  0  0  0  0  0
   15.9731   15.8702   32.7218 C   0  0  0  0  0  0
   15.2780   16.1437   31.5355 C   0  0  0  0  0  0
   14.3487   17.1902   31.5101 C   0  0  0  0  0  0
   13.5701   17.5444   30.2626 C   0  0  0  0  0  0
   12.7673   18.6243   30.4385 N   0  0  0  0  0  0
   13.6168   16.9497   29.1913 O   0  0  0  0  0  0
   17.0347   14.7673   32.7241 C   0  0  0  0  0  0
   17.6983   14.5506   34.0259 N   0  0  0  0  0  0
   19.0810   14.9668   34.2624 C   0  0  0  0  0  0
   20.0635   14.6280   33.2276 C   0  0  0  0  0  0
   20.9453   14.6280   32.3855 C   0  0  0  0  0  0
   17.2186   13.4730   34.7890 C   0  0  0  0  0  0
   15.9908   13.6080   35.4410 C   0  0  0  0  0  0
   15.4339   12.5361   36.1147 C   0  0  0  0  0  0
   16.1185   11.3196   36.1736 C   0  0  0  0  0  0
   17.3867   11.2021   35.5914 C   0  0  0  0  0  0
   17.9346   12.2767   34.8960 C   0  0  0  0  0  0
   15.5047   10.1553   36.8870 C   0  0  0  0  0  0
   16.1848    9.4279   37.6021 O   0  0  0  0  0  0
   14.1917    9.9815   36.6960 N   0  0  0  0  0  0
   13.3845    8.9512   37.3485 C   0  0  1  0  0  0
   13.0506    9.3238   38.8249 C   0  0  0  0  0  0
   12.3670   10.7042   39.0271 C   0  0  0  0  0  0
   12.7959   11.4691   40.2896 C   0  0  0  0  0  0
   12.5920   10.9796   41.4003 O   0  0  0  0  0  0
   13.3050   12.7039   40.1072 N   0  0  0  0  0  0
   13.4294   13.7796   41.1096 C   0  0  2  0  0  0
   14.3365   13.3771   42.3008 C   0  0  0  0  0  0
   12.0533   14.2930   41.5921 C   0  0  0  0  0  0
   10.9918   13.7930   41.3065 O   0  0  0  0  0  0
   12.1919   15.3868   42.3910 O   0  0  0  0  0  0
   12.1717    8.5843   36.4663 C   0  0  0  0  0  0
   11.0228    8.5718   36.8533 O   0  0  0  0  0  0
   12.5930    8.2329   35.2136 O   0  0  0  0  0  0
   13.9789    8.0352   37.3813 H   0  0  0  0  0  0
   13.8997   14.6108   40.5831 H   0  0  0  0  0  0
   12.2910   21.4231   32.0908 H   0  0  0  0  0  0
   11.5801   20.9527   30.5484 H   0  0  0  0  0  0
   10.8493   20.4199   32.0694 H   0  0  0  0  0  0
   14.5639   18.2569   34.7220 H   0  0  0  0  0  0
   16.1916   16.4022   34.7902 H   0  0  0  0  0  0
   15.4735   15.5602   30.6446 H   0  0  0  0  0  0
   12.2420   18.8920   29.6222 H   0  0  0  0  0  0
   16.5925   13.8380   32.3610 H   0  0  0  0  0  0
   17.7724   15.0443   31.9707 H   0  0  0  0  0  0
   19.0959   16.0518   34.3704 H   0  0  0  0  0  0
   19.4657   14.5646   35.1908 H   0  0  0  0  0  0
   21.6807   14.5416   31.6205 H   0  0  0  0  0  0
   15.4254   14.5227   35.3967 H   0  0  0  0  0  0
   14.4691   12.6659   36.5829 H   0  0  0  0  0  0
   17.9420   10.2763   35.6510 H   0  0  0  0  0  0
   18.8939   12.1637   34.4106 H   0  0  0  0  0  0
   13.7167   10.5481   36.0105 H   0  0  0  0  0  0
   12.4232    8.5456   39.2656 H   0  0  0  0  0  0
   13.9732    9.2703   39.4089 H   0  0  0  0  0  0
   12.5056   11.3371   38.1506 H   0  0  0  0  0  0
   11.2859   10.5642   39.0683 H   0  0  0  0  0  0
   13.4628   13.0035   39.1563 H   0  0  0  0  0  0
   14.5112   14.2270   42.9595 H   0  0  0  0  0  0
   13.8933   12.5896   42.9097 H   0  0  0  0  0  0
   15.3179   13.0281   41.9859 H   0  0  0  0  0  0
   11.3725   15.5554   42.8769 H   0  0  0  0  0  0
   11.8705    7.8753   34.6661 H   0  0  0  0  0  0
  1 43  1  0  0  0
  1 44  1  0  0  0
  1 45  1  0  0  0
  1  2  1  0  0  0
  2  3  2  0  0  0
  2 11  1  0  0  0
  3  4  1  0  0  0
  4  9  2  0  0  0
  4  5  1  0  0  0
  5  6  2  0  0  0
  5 46  1  0  0  0
  6  7  1  0  0  0
  6 47  1  0  0  0
  7  8  2  0  0  0
  7 13  1  0  0  0
  8  9  1  0  0  0
  8 48  1  0  0  0
  9 10  1  0  0  0
 10 12  2  0  0  0
 10 11  1  0  0  0
 11 49  1  0  0  0
 13 14  1  0  0  0
 13 50  1  0  0  0
 13 51  1  0  0  0
 14 15  1  0  0  0
 14 18  1  0  0  0
 15 16  1  0  0  0
 15 52  1  0  0  0
 15 53  1  0  0  0
 16 17  3  0  0  0
 17 54  1  0  0  0
 18 23  1  0  0  0
 18 19  2  0  0  0
 19 20  1  0  0  0
 19 55  1  0  0  0
 20 21  2  0  0  0
 20 56  1  0  0  0
 21 22  1  0  0  0
 21 24  1  0  0  0
 22 23  2  0  0  0
 22 57  1  0  0  0
 23 58  1  0  0  0
 24 25  2  0  0  0
 24 26  1  0  0  0
 26 27  1  0  0  0
 26 59  1  0  0  0
 27 41  1  0  0  0
 27 28  1  0  0  0
 27 38  1  0  0  0
 28 29  1  0  0  0
 28 60  1  0  0  0
 28 61  1  0  0  0
 29 30  1  0  0  0
 29 62  1  0  0  0
 29 63  1  0  0  0
 30 31  2  0  0  0
 30 32  1  0  0  0
 32 33  1  0  0  0
 32 64  1  0  0  0
 33 42  1  0  0  0
 33 34  1  0  0  0
 33 35  1  0  0  0
 34 65  1  0  0  0
 34 66  1  0  0  0
 34 67  1  0  0  0
 35 36  2  0  0  0
 35 37  1  0  0  0
 37 68  1  0  0  0
 38 39  2  0  0  0
 38 40  1  0  0  0
 40 69  1  0  0  0
M  END
> <s_m_entry_id>
41668

> <s_m_entry_name>
ligand_docking-pose.28

> <s_m_Source_Path>
/home/csk/Desktop/cluster/DUD-E-result/tysy

> <s_m_Source_File>
ligand_docking-pose.sdf

> <i_m_Source_File_Index>
28

> <i_lp_mmshare_version>
53161

> <i_f3d_flags>
0

> <r_lp_tautomer_probability>
0.883938

> <s_lp_Force_Field>
OPLS_2005

> <r_lp_Energy>
24.506793

> <b_lp_Chiralities_Consistent>
1

> <s_lp_Variant>
282101-1

> <s_i_glide_gridfile>
glide-grid_1syn

> <i_i_glide_lignum>
588

> <i_i_glide_rotatable_bonds>
17

> <r_i_docking_score>
-8.95909743974345

> <r_i_glide_ligand_efficiency>
-0.223977435993586

> <r_i_glide_ligand_efficiency_sa>
-0.76599205535282

> <r_i_glide_ligand_efficiency_ln>
-1.91071182942929

> <r_i_glide_gscore>
-8.95909743974345

> <r_i_glide_lipo>
-4.02792680972846

> <r_i_glide_hbond>
-0.341402489726001

> <r_i_glide_metal>
0

> <r_i_glide_rewards>
0.149243200258254

> <r_i_glide_evdw>
-45.6371726989746

> <r_i_glide_ecoul>
-23.0009326934814

> <r_i_glide_erotb>
1.03644639142796

> <r_i_glide_esite>
-0.0434591930042583

> <r_i_glide_emodel>
-93.1895049148556

> <r_i_glide_energy>
-68.6381053924561

> <r_i_glide_einternal>
19.4236030578613

> <i_i_glide_confnum>
9

> <i_i_glide_posenum>
231

> <r_i_glide_eff_state_penalty>
0

> <s_user_duplicate_titles>
282101

> <s_m_subgroup_title>
dock_pv

> <s_m_subgroupid>
dock_pv1

> <b_m_subgroup_collapsed>
0

$$$$
207424
                    3D
 Schrodinger Suite 2021-1.
 69 71  0  0  1  0            999 V2000
   17.4145   14.2779   30.8597 C   0  0  0  0  0  0
   16.4563   15.3539   31.3347 C   0  0  0  0  0  0
   15.4676   15.7658   30.4293 C   0  0  0  0  0  0
   14.5530   16.7474   30.7835 C   0  0  0  0  0  0
   14.5731   17.2584   32.0794 C   0  0  0  0  0  0
   15.5380   16.8606   32.9986 C   0  0  0  0  0  0
   16.5314   15.9540   32.6163 C   0  0  0  0  0  0
   17.7210   15.8453   33.5817 C   0  0  0  0  0  0
   18.3067   14.5306   33.8036 N   0  0  0  0  0  0
   19.6212   14.2986   33.2051 C   0  0  0  0  0  0
   20.7272   14.2279   34.1667 C   0  0  0  0  0  0
   21.7138   13.8720   34.7909 C   0  0  0  0  0  0
   17.6534   13.5445   34.5878 C   0  0  0  0  0  0
   18.1934   12.2569   34.7310 C   0  0  0  0  0  0
   17.5225   11.2679   35.4378 C   0  0  0  0  0  0
   16.2693   11.5319   35.9939 C   0  0  0  0  0  0
   15.7529   12.8332   35.9340 C   0  0  0  0  0  0
   16.4421   13.8216   35.2388 C   0  0  0  0  0  0
   14.5699   13.1496   36.5135 F   0  0  0  0  0  0
   15.5156   10.4072   36.6283 C   0  0  0  0  0  0
   16.0965    9.5790   37.3273 O   0  0  0  0  0  0
   14.2128   10.3395   36.3036 N   0  0  0  0  0  0
   13.2818    9.2684   36.6793 C   0  0  2  0  0  0
   13.1208    9.1456   38.2177 C   0  0  0  0  0  0
   12.7209   10.4748   38.8993 C   0  0  0  0  0  0
   12.8906   10.3531   40.7721 S   0  0  0  0  0  0
   14.2947   10.1108   41.1051 O   0  0  0  0  0  0
   12.1920   11.4942   41.3718 O   0  0  0  0  0  0
   12.0125    8.8878   41.1806 N   0  0  0  0  0  0
   10.6895    8.5974   40.7911 C   0  0  0  0  0  0
    9.9601    9.3851   40.1948 O   0  0  0  0  0  0
   10.2265    7.1924   41.1553 C   0  0  0  0  0  0
   13.6336    7.9295   35.9779 C   0  0  0  0  0  0
   14.4651    7.8188   35.0985 O   0  0  0  0  0  0
   12.8465    6.9157   36.4394 O   0  0  0  0  0  0
   13.5017   18.2405   32.4598 C   0  0  0  0  0  0
   12.7473   18.6258   31.4095 N   0  0  0  0  0  0
   12.8388   18.1649   30.1306 C   0  0  0  0  0  0
   13.6551   17.2258   29.8124 N   0  0  0  0  0  0
   11.9097   18.7683   29.1220 C   0  0  0  0  0  0
   13.2673   18.6262   33.5911 O   0  0  0  0  0  0
   18.4118   14.6846   30.6976 H   0  0  0  0  0  0
   17.4742   13.4662   31.5828 H   0  0  0  0  0  0
   17.0637   13.8156   29.9396 H   0  0  0  0  0  0
   15.4230   15.3503   29.4338 H   0  0  0  0  0  0
   15.5597   17.3151   33.9813 H   0  0  0  0  0  0
   18.4824   16.5346   33.2328 H   0  0  0  0  0  0
   17.4542   16.2277   34.5532 H   0  0  0  0  0  0
   19.5983   13.3638   32.6604 H   0  0  0  0  0  0
   19.8787   15.0287   32.4446 H   0  0  0  0  0  0
   22.5915   13.4281   35.1911 H   0  0  0  0  0  0
   19.1309   11.9819   34.2714 H   0  0  0  0  0  0
   17.9622   10.2810   35.4931 H   0  0  0  0  0  0
   15.9863   14.7969   35.1883 H   0  0  0  0  0  0
   13.8349   11.0688   35.7178 H   0  0  0  0  0  0
   12.3151    9.5604   36.2674 H   0  0  0  0  0  0
   12.3564    8.4002   38.4407 H   0  0  0  0  0  0
   14.0460    8.7726   38.6611 H   0  0  0  0  0  0
   13.3581   11.3067   38.6003 H   0  0  0  0  0  0
   11.6933   10.7503   38.6634 H   0  0  0  0  0  0
   12.5813    8.1599   41.6177 H   0  0  0  0  0  0
   10.7934    6.4497   40.5964 H   0  0  0  0  0  0
   10.3554    7.0051   42.2199 H   0  0  0  0  0  0
    9.1711    7.0612   40.9149 H   0  0  0  0  0  0
   13.0310    6.0918   35.9808 H   0  0  0  0  0  0
   10.9332   18.2920   29.1910 H   0  0  0  0  0  0
   11.7793   19.8373   29.2869 H   0  0  0  0  0  0
   12.2977   18.6471   28.1123 H   0  0  0  0  0  0
   12.0391   19.3058   31.6340 H   0  0  0  0  0  0
  1 42  1  0  0  0
  1 43  1  0  0  0
  1 44  1  0  0  0
  1  2  1  0  0  0
  2  7  1  0  0  0
  2  3  2  0  0  0
  3 45  1  0  0  0
  3  4  1  0  0  0
  4  5  2  0  0  0
  4 39  1  0  0  0
  5 36  1  0  0  0
  5  6  1  0  0  0
  6 46  1  0  0  0
  6  7  2  0  0  0
  7  8  1  0  0  0
  8  9  1  0  0  0
  8 47  1  0  0  0
  8 48  1  0  0  0
  9 10  1  0  0  0
  9 13  1  0  0  0
 10 11  1  0  0  0
 10 49  1  0  0  0
 10 50  1  0  0  0
 11 12  3  0  0  0
 12 51  1  0  0  0
 13 18  1  0  0  0
 13 14  2  0  0  0
 14 15  1  0  0  0
 14 52  1  0  0  0
 15 16  2  0  0  0
 15 53  1  0  0  0
 16 17  1  0  0  0
 16 20  1  0  0  0
 17 18  2  0  0  0
 17 19  1  0  0  0
 18 54  1  0  0  0
 20 21  2  0  0  0
 20 22  1  0  0  0
 22 23  1  0  0  0
 22 55  1  0  0  0
 23 24  1  0  0  0
 23 33  1  0  0  0
 23 56  1  0  0  0
 24 25  1  0  0  0
 24 57  1  0  0  0
 24 58  1  0  0  0
 25 26  1  0  0  0
 25 59  1  0  0  0
 25 60  1  0  0  0
 26 27  2  0  0  0
 26 28  2  0  0  0
 26 29  1  0  0  0
 29 30  1  0  0  0
 29 61  1  0  0  0
 30 31  2  0  0  0
 30 32  1  0  0  0
 32 62  1  0  0  0
 32 63  1  0  0  0
 32 64  1  0  0  0
 33 34  2  0  0  0
 33 35  1  0  0  0
 35 65  1  0  0  0
 36 41  2  0  0  0
 36 37  1  0  0  0
 37 38  1  0  0  0
 37 69  1  0  0  0
 38 39  2  0  0  0
 38 40  1  0  0  0
 40 66  1  0  0  0
 40 67  1  0  0  0
 40 68  1  0  0  0
M  END
> <s_m_entry_id>
41669

> <s_m_entry_name>
ligand_docking-pose.29

> <s_m_Source_Path>
/home/csk/Desktop/cluster/DUD-E-result/tysy

> <s_m_Source_File>
ligand_docking-pose.sdf

> <i_m_Source_File_Index>
29

> <i_lp_mmshare_version>
53161

> <i_f3d_flags>
0

> <r_lp_tautomer_probability>
0.883938

> <s_lp_Force_Field>
OPLS_2005

> <r_lp_Energy>
15.966896

> <b_lp_Chiralities_Consistent>
1

> <s_lp_Variant>
207424-1

> <s_i_glide_gridfile>
glide-grid_1syn

> <i_i_glide_lignum>
223

> <i_i_glide_rotatable_bonds>
15

> <r_i_docking_score>
-8.95604080442276

> <r_i_glide_ligand_efficiency>
-0.218440019620067

> <r_i_glide_ligand_efficiency_sa>
-0.753228640711068

> <r_i_glide_ligand_efficiency_ln>
-1.90005386099565

> <r_i_glide_gscore>
-8.95604080442276

> <r_i_glide_lipo>
-3.54262433416561

> <r_i_glide_hbond>
-0.541542533675974

> <r_i_glide_metal>
0

> <r_i_glide_rewards>
-1.05170207057967

> <r_i_glide_evdw>
-46.6722984313965

> <r_i_glide_ecoul>
-13.9398336410522

> <r_i_glide_erotb>
0.688811914395865

> <r_i_glide_esite>
-0.0843938126697047

> <r_i_glide_emodel>
-79.1289048426651

> <r_i_glide_energy>
-60.6121320724487

> <r_i_glide_einternal>
16.1637554168701

> <i_i_glide_confnum>
67

> <i_i_glide_posenum>
36

> <r_i_glide_eff_state_penalty>
0

> <s_user_duplicate_titles>
207424

> <s_m_subgroup_title>
dock_pv

> <s_m_subgroupid>
dock_pv1

> <b_m_subgroup_collapsed>
0

$$$$
642998
                    3D
 Schrodinger Suite 2021-1.
 57 60  0  0  1  0            999 V2000
   15.9395   15.6193   29.4809 C   0  0  0  0  0  0
   16.0863   15.3955   30.9202 N   0  0  0  0  0  0
   17.3868   14.7744   31.1805 C   0  0  0  0  0  0
   17.4904   14.2079   32.6041 C   0  0  0  0  0  0
   16.9320   15.0959   33.6343 N   0  0  0  0  0  0
   15.8493   15.9233   33.3031 C   0  0  0  0  0  0
   15.4978   16.1492   31.9430 C   0  0  0  0  0  0
   14.4736   17.0652   31.6491 C   0  0  0  0  0  0
   13.8120   17.7575   32.6590 C   0  0  0  0  0  0
   14.1441   17.5285   33.9875 C   0  0  0  0  0  0
   15.1482   16.6188   34.3038 C   0  0  0  0  0  0
   17.3895   14.7013   34.9783 C   0  0  0  0  0  0
   16.9423   13.3174   35.4501 C   0  0  0  0  0  0
   15.7916   13.0848   36.1227 C   0  0  0  0  0  0
   15.3743   11.8323   36.5246 N   0  0  0  0  0  0
   16.1030   10.7099   36.1769 C   0  0  0  0  0  0
   15.7972    9.5380   36.3797 O   0  0  0  0  0  0
   17.2964   10.9876   35.5726 N   0  0  0  0  0  0
   17.8349   12.1834   35.2110 C   0  0  0  0  0  0
   18.9782   12.2531   34.7743 O   0  0  0  0  0  0
   14.1442   11.6777   37.2970 C   0  0  1  0  0  0
   12.8708   11.3339   36.5444 C   0  0  0  0  0  0
   12.0008   10.9388   37.7310 C   0  0  2  0  0  0
   12.9666   10.1583   38.6466 C   0  0  2  0  0  0
   14.2429   10.7100   38.3108 O   0  0  0  0  0  0
   13.0459    8.6168   38.4507 C   0  0  0  0  0  0
   12.8160    8.2544   37.0965 O   0  0  0  0  0  0
   13.5922    7.0333   36.3504 P   0  0  0  0  0  0
   14.9919    6.7580   36.7695 O   0  0  0  0  0  0
   12.5958    5.7667   36.4988 O   0  0  0  0  0  0
   13.3920    7.4287   34.7931 O   0  0  0  0  0  0
   10.8201   10.2595   37.3506 O   0  0  0  0  0  0
   17.8780   10.1882   35.3752 H   0  0  0  0  0  0
   11.7032   11.8500   38.2561 H   0  0  0  0  0  0
   12.7676   10.3767   39.6964 H   0  0  0  0  0  0
   16.5921   16.4234   29.1403 H   0  0  0  0  0  0
   16.1870   14.7189   28.9144 H   0  0  0  0  0  0
   14.9147   15.8763   29.2143 H   0  0  0  0  0  0
   18.1954   15.4805   31.0030 H   0  0  0  0  0  0
   17.5499   13.9508   30.4831 H   0  0  0  0  0  0
   18.5452   14.0186   32.8140 H   0  0  0  0  0  0
   16.9929   13.2386   32.6417 H   0  0  0  0  0  0
   14.1707   17.2599   30.6323 H   0  0  0  0  0  0
   13.0359   18.4678   32.4118 H   0  0  0  0  0  0
   13.6292   18.0660   34.7716 H   0  0  0  0  0  0
   15.3807   16.4867   35.3477 H   0  0  0  0  0  0
   17.0778   15.4245   35.7282 H   0  0  0  0  0  0
   18.4800   14.7654   35.0026 H   0  0  0  0  0  0
   15.0954   13.8770   36.3606 H   0  0  0  0  0  0
   14.0199   12.6409   37.7995 H   0  0  0  0  0  0
   13.0574   10.5028   35.8607 H   0  0  0  0  0  0
   12.4958   12.1948   35.9910 H   0  0  0  0  0  0
   12.2702    8.1309   39.0447 H   0  0  0  0  0  0
   14.0056    8.2408   38.8122 H   0  0  0  0  0  0
   12.9916    4.9089   36.2243 H   0  0  0  0  0  0
   12.4423    7.4288   34.5136 H   0  0  0  0  0  0
   10.4589   10.6832   36.5669 H   0  0  0  0  0  0
  1  2  1  0  0  0
  1 36  1  0  0  0
  1 37  1  0  0  0
  1 38  1  0  0  0
  2  7  1  0  0  0
  2  3  1  0  0  0
  3  4  1  0  0  0
  3 39  1  0  0  0
  3 40  1  0  0  0
  4  5  1  0  0  0
  4 41  1  0  0  0
  4 42  1  0  0  0
  5  6  1  0  0  0
  5 12  1  0  0  0
  6 11  2  0  0  0
  6  7  1  0  0  0
  7  8  2  0  0  0
  8  9  1  0  0  0
  8 43  1  0  0  0
  9 10  2  0  0  0
  9 44  1  0  0  0
 10 11  1  0  0  0
 10 45  1  0  0  0
 11 46  1  0  0  0
 12 13  1  0  0  0
 12 47  1  0  0  0
 12 48  1  0  0  0
 13 19  1  0  0  0
 13 14  2  0  0  0
 14 15  1  0  0  0
 14 49  1  0  0  0
 15 16  1  0  0  0
 15 21  1  0  0  0
 16 17  2  0  0  0
 16 18  1  0  0  0
 18 33  1  0  0  0
 18 19  1  0  0  0
 19 20  2  0  0  0
 21 25  1  0  0  0
 21 22  1  0  0  0
 21 50  1  0  0  0
 22 23  1  0  0  0
 22 51  1  0  0  0
 22 52  1  0  0  0
 23 34  1  0  0  0
 23 24  1  0  0  0
 23 32  1  0  0  0
 24 35  1  0  0  0
 24 25  1  0  0  0
 24 26  1  0  0  0
 26 27  1  0  0  0
 26 53  1  0  0  0
 26 54  1  0  0  0
 27 28  1  0  0  0
 28 29  2  0  0  0
 28 30  1  0  0  0
 28 31  1  0  0  0
 30 55  1  0  0  0
 31 56  1  0  0  0
 32 57  1  0  0  0
M  END
> <s_m_entry_id>
41670

> <s_m_entry_name>
ligand_docking-pose.30

> <s_m_Source_Path>
/home/csk/Desktop/cluster/DUD-E-result/tysy

> <s_m_Source_File>
ligand_docking-pose.sdf

> <i_m_Source_File_Index>
30

> <i_lp_mmshare_version>
53161

> <i_f3d_flags>
0

> <r_lp_tautomer_probability>
0.999537046341301

> <s_lp_Force_Field>
OPLS_2005

> <r_lp_Energy>
34.300546

> <b_lp_Chiralities_Consistent>
1

> <s_lp_Variant>
642998-2

> <s_i_glide_gridfile>
glide-grid_1syn

> <i_i_glide_lignum>
901

> <i_i_glide_rotatable_bonds>
9

> <r_i_docking_score>
-8.93538416956545

> <r_i_glide_ligand_efficiency>
-0.27923075529892

> <r_i_glide_ligand_efficiency_sa>
-0.886502388382634

> <r_i_glide_ligand_efficiency_ln>
-2.000876084939

> <r_i_glide_gscore>
-8.93538416956545

> <r_i_glide_lipo>
-3.30025469602444

> <r_i_glide_hbond>
0

> <r_i_glide_metal>
0

> <r_i_glide_rewards>
-1.57068371930429

> <r_i_glide_evdw>
-46.0692672729492

> <r_i_glide_ecoul>
-15.4208269119263

> <r_i_glide_erotb>
0.552141646199679

> <r_i_glide_esite>
0

> <r_i_glide_emodel>
-87.3852037365294

> <r_i_glide_energy>
-61.4900941848755

> <r_i_glide_einternal>
6.86000728607178

> <i_i_glide_confnum>
298

> <i_i_glide_posenum>
240

> <r_i_glide_eff_state_penalty>
0

> <s_user_duplicate_titles>
642998

> <s_m_subgroup_title>
dock_pv

> <s_m_subgroupid>
dock_pv1

> <b_m_subgroup_collapsed>
0

$$$$
183634
                    3D
 Schrodinger Suite 2021-1.
 72 74  0  0  1  0            999 V2000
   10.2456   13.8135   37.6761 C   0  0  0  0  0  0
    9.8772   12.9143   38.8676 C   0  0  0  0  0  0
   10.8536   11.7402   39.0763 C   0  0  0  0  0  0
   12.1899   12.1307   39.7489 C   0  0  0  0  0  0
   13.2219   11.1037   39.6545 N   0  0  0  0  0  0
   13.1723    9.8748   40.1940 C   0  0  0  0  0  0
   12.2521    9.4863   40.9129 O   0  0  0  0  0  0
   14.3556    8.9494   39.8818 C   0  0  0  0  0  0
   14.1089    7.8771   38.7864 C   0  0  0  0  0  0
   13.5118    8.3197   37.4067 C   0  0  2  0  0  0
   13.6948    7.2362   36.3096 C   0  0  0  0  0  0
   14.1201    7.4506   35.1923 O   0  0  0  0  0  0
   13.2865    6.0165   36.7710 O   0  0  0  0  0  0
   13.9444    9.6559   36.9530 N   0  0  0  0  0  0
   15.2095   10.1123   36.8707 C   0  0  0  0  0  0
   16.1863    9.4281   37.1645 O   0  0  0  0  0  0
   15.3962   11.5429   36.4251 C   0  0  0  0  0  0
   14.3502   12.4683   36.4491 C   0  0  0  0  0  0
   14.5456   13.7608   35.9738 C   0  0  0  0  0  0
   15.7803   14.1679   35.4352 C   0  0  0  0  0  0
   16.8436   13.2529   35.5156 C   0  0  0  0  0  0
   16.6547   11.9626   35.9898 C   0  0  0  0  0  0
   15.9372   15.4111   34.7474 N   0  0  0  0  0  0
   17.2338   15.7996   34.1466 C   0  0  0  0  0  0
   17.6257   15.0072   32.9643 C   0  0  0  0  0  0
   17.9253   14.3253   31.9960 C   0  0  0  0  0  0
   14.9257   16.4796   34.8766 C   0  0  0  0  0  0
   14.3797   17.0338   33.5615 C   0  0  0  0  0  0
   13.6317   18.2139   33.6240 C   0  0  0  0  0  0
   13.1547   18.8244   32.4683 C   0  0  0  0  0  0
   13.4359   18.2627   31.2299 C   0  0  0  0  0  0
   14.1607   17.0697   31.1538 C   0  0  0  0  0  0
   14.6046   16.4322   32.3136 C   0  0  0  0  0  0
   14.4787   16.5239   29.7819 C   0  0  0  0  0  0
   13.9898   17.3063   28.7914 N   0  0  0  0  0  0
   13.2742   18.4639   28.9315 C   0  0  0  0  0  0
   12.9802   18.9265   30.0860 N   0  0  0  0  0  0
   12.8469   19.2078   27.6971 C   0  0  0  0  0  0
   15.1150   15.5060   29.5303 O   0  0  0  0  0  0
   12.4334    8.4179   37.5422 H   0  0  0  0  0  0
    9.5449   14.6447   37.5896 H   0  0  0  0  0  0
   11.2479   14.2291   37.7757 H   0  0  0  0  0  0
   10.2108   13.2587   36.7369 H   0  0  0  0  0  0
    8.8756   12.5180   38.6987 H   0  0  0  0  0  0
    9.8107   13.5144   39.7775 H   0  0  0  0  0  0
   11.0438   11.2521   38.1182 H   0  0  0  0  0  0
   10.3618   10.9878   39.6935 H   0  0  0  0  0  0
   12.0258   12.4322   40.7861 H   0  0  0  0  0  0
   12.5895   13.0226   39.2646 H   0  0  0  0  0  0
   14.0302   11.3355   39.0946 H   0  0  0  0  0  0
   14.6439    8.4366   40.7909 H   0  0  0  0  0  0
   15.2390    9.5405   39.6385 H   0  0  0  0  0  0
   13.4823    7.0910   39.2145 H   0  0  0  0  0  0
   15.0695    7.3879   38.6146 H   0  0  0  0  0  0
   13.3910    5.3169   36.1131 H   0  0  0  0  0  0
   13.2069   10.2448   36.6002 H   0  0  0  0  0  0
   13.3643   12.2038   36.8023 H   0  0  0  0  0  0
   13.6690   14.3833   35.9539 H   0  0  0  0  0  0
   17.8304   13.5005   35.1610 H   0  0  0  0  0  0
   17.4987   11.2845   35.9816 H   0  0  0  0  0  0
   17.2111   16.8411   33.8256 H   0  0  0  0  0  0
   18.0371   15.7290   34.8812 H   0  0  0  0  0  0
   18.1927   13.7145   31.1605 H   0  0  0  0  0  0
   15.3878   17.3112   35.4046 H   0  0  0  0  0  0
   14.0754   16.2339   35.5064 H   0  0  0  0  0  0
   13.4210   18.6543   34.5856 H   0  0  0  0  0  0
   12.5918   19.7455   32.5338 H   0  0  0  0  0  0
   15.1348   15.4954   32.2406 H   0  0  0  0  0  0
   13.3885   20.1413   27.5950 H   0  0  0  0  0  0
   12.9927   18.6276   26.7913 H   0  0  0  0  0  0
   11.7921   19.4546   27.7625 H   0  0  0  0  0  0
   14.1910   16.9642   27.8653 H   0  0  0  0  0  0
  1  2  1  0  0  0
  1 41  1  0  0  0
  1 42  1  0  0  0
  1 43  1  0  0  0
  2  3  1  0  0  0
  2 44  1  0  0  0
  2 45  1  0  0  0
  3  4  1  0  0  0
  3 46  1  0  0  0
  3 47  1  0  0  0
  4  5  1  0  0  0
  4 48  1  0  0  0
  4 49  1  0  0  0
  5  6  1  0  0  0
  5 50  1  0  0  0
  6  7  2  0  0  0
  6  8  1  0  0  0
  8  9  1  0  0  0
  8 51  1  0  0  0
  8 52  1  0  0  0
  9 10  1  0  0  0
  9 53  1  0  0  0
  9 54  1  0  0  0
 10 40  1  0  0  0
 10 11  1  0  0  0
 10 14  1  0  0  0
 11 12  2  0  0  0
 11 13  1  0  0  0
 13 55  1  0  0  0
 14 15  1  0  0  0
 14 56  1  0  0  0
 15 16  2  0  0  0
 15 17  1  0  0  0
 17 22  1  0  0  0
 17 18  2  0  0  0
 18 19  1  0  0  0
 18 57  1  0  0  0
 19 20  2  0  0  0
 19 58  1  0  0  0
 20 21  1  0  0  0
 20 23  1  0  0  0
 21 22  2  0  0  0
 21 59  1  0  0  0
 22 60  1  0  0  0
 23 24  1  0  0  0
 23 27  1  0  0  0
 24 25  1  0  0  0
 24 61  1  0  0  0
 24 62  1  0  0  0
 25 26  3  0  0  0
 26 63  1  0  0  0
 27 64  1  0  0  0
 27 65  1  0  0  0
 27 28  1  0  0  0
 28 33  2  0  0  0
 28 29  1  0  0  0
 29 66  1  0  0  0
 29 30  2  0  0  0
 30 67  1  0  0  0
 30 31  1  0  0  0
 31 32  2  0  0  0
 31 37  1  0  0  0
 32 34  1  0  0  0
 32 33  1  0  0  0
 33 68  1  0  0  0
 34 39  2  0  0  0
 34 35  1  0  0  0
 35 36  1  0  0  0
 35 72  1  0  0  0
 36 37  2  0  0  0
 36 38  1  0  0  0
 38 69  1  0  0  0
 38 70  1  0  0  0
 38 71  1  0  0  0
M  END
> <s_m_entry_id>
41672

> <s_m_entry_name>
ligand_docking-pose.32

> <s_m_Source_Path>
/home/csk/Desktop/cluster/DUD-E-result/tysy

> <s_m_Source_File>
ligand_docking-pose.sdf

> <i_m_Source_File_Index>
32

> <i_lp_mmshare_version>
53161

> <i_f3d_flags>
0

> <r_lp_tautomer_probability>
0.883938

> <s_lp_Force_Field>
OPLS_2005

> <r_lp_Energy>
26.216832

> <b_lp_Chiralities_Consistent>
1

> <s_lp_Variant>
183634-1

> <s_i_glide_gridfile>
glide-grid_1syn

> <i_i_glide_lignum>
749

> <i_i_glide_rotatable_bonds>
17

> <r_i_docking_score>
-8.88270099559884

> <r_i_glide_ligand_efficiency>
-0.227761563989714

> <r_i_glide_ligand_efficiency_sa>
-0.772387621137491

> <r_i_glide_ligand_efficiency_ln>
-1.90470324391889

> <r_i_glide_gscore>
-8.88270099559884

> <r_i_glide_lipo>
-3.97948387064336

> <r_i_glide_hbond>
-0.54662540016833

> <r_i_glide_metal>
0

> <r_i_glide_rewards>
-1.12933587822409

> <r_i_glide_evdw>
-59.330192565918

> <r_i_glide_ecoul>
-8.99462032318115

> <r_i_glide_erotb>
1.09452580956228

> <r_i_glide_esite>
-0.00607897935226447

> <r_i_glide_emodel>
-99.3479494823892

> <r_i_glide_energy>
-68.3248128890991

> <r_i_glide_einternal>
7.07074546813965

> <i_i_glide_confnum>
51

> <i_i_glide_posenum>
290

> <r_i_glide_eff_state_penalty>
0

> <s_user_duplicate_titles>
183634

> <s_m_subgroup_title>
dock_pv

> <s_m_subgroupid>
dock_pv1

> <b_m_subgroup_collapsed>
0

$$$$
207321
                    3D
 Schrodinger Suite 2021-1.
 71 74  0  0  1  0            999 V2000
   18.0934   13.8198   31.3699 C   0  0  0  0  0  0
   17.0347   14.8095   31.8194 C   0  0  0  0  0  0
   16.1883   15.3584   30.8471 C   0  0  0  0  0  0
   15.2103   16.2775   31.2059 C   0  0  0  0  0  0
   15.0713   16.6392   32.5464 C   0  0  0  0  0  0
   15.9055   16.1038   33.5266 C   0  0  0  0  0  0
   16.8974   15.1794   33.1742 C   0  0  0  0  0  0
   17.8634   14.6591   34.2477 C   0  0  0  0  0  0
   17.5249   13.3092   34.7498 N   0  0  0  0  0  0
   18.7067   12.4397   34.9437 C   0  0  0  0  0  0
   18.5944   11.0249   34.5435 C   0  0  0  0  0  0
   18.5921    9.8400   34.2521 C   0  0  0  0  0  0
   16.4155   13.1409   35.6367 C   0  0  0  0  0  0
   15.7783   14.2261   36.2625 C   0  0  0  0  0  0
   14.6441   14.0591   37.0566 C   0  0  0  0  0  0
   14.1262   12.7805   37.2937 C   0  0  0  0  0  0
   14.7916   11.6836   36.7391 C   0  0  0  0  0  0
   15.8937   11.8687   35.9141 C   0  0  0  0  0  0
   14.3687   10.4193   36.9618 F   0  0  0  0  0  0
   12.8432   12.5769   38.0546 C   0  0  0  0  0  0
   12.6913   11.6058   38.7957 O   0  0  0  0  0  0
   11.8792   13.4754   37.7824 N   0  0  0  0  0  0
   10.4645   13.4404   38.1908 C   0  0  1  0  0  0
    9.7200   12.2197   37.5766 C   0  0  0  0  0  0
    9.7112   12.2144   36.0245 C   0  0  0  0  0  0
    9.6518   10.8242   35.3586 C   0  0  0  0  0  0
   10.9648   10.0128   35.4237 C   0  0  0  0  0  0
   11.0731    8.8177   36.7932 S   0  0  0  0  0  0
   12.6206    8.0462   36.4420 C   0  0  0  0  0  0
   13.2167    7.1307   37.2675 N   0  0  0  0  0  0
   14.3893    6.7335   36.7738 N   0  0  0  0  0  0
   14.5091    7.4351   35.5914 N   0  0  0  0  0  0
   13.3887    8.2380   35.3939 N   0  0  0  0  0  0
   10.2327   13.5498   39.7210 C   0  0  0  0  0  0
   10.9919   13.1394   40.5771 O   0  0  0  0  0  0
    9.0702   14.2275   39.9719 O   0  0  0  0  0  0
   13.9698   17.6013   32.9081 C   0  0  0  0  0  0
   13.3108   18.0670   31.8210 N   0  0  0  0  0  0
   13.5152   17.7094   30.5164 C   0  0  0  0  0  0
   14.4058   16.8415   30.1988 N   0  0  0  0  0  0
   12.6390   18.3509   29.4656 C   0  0  0  0  0  0
   13.6498   17.9190   34.0479 O   0  0  0  0  0  0
   12.8399    6.7937   38.1399 H   0  0  0  0  0  0
   18.1445   12.9690   32.0481 H   0  0  0  0  0  0
   17.8584   13.4058   30.3910 H   0  0  0  0  0  0
   19.0779   14.2873   31.3362 H   0  0  0  0  0  0
   16.2915   15.0817   29.8088 H   0  0  0  0  0  0
   15.7810   16.4331   34.5461 H   0  0  0  0  0  0
   18.8657   14.6793   33.8164 H   0  0  0  0  0  0
   17.9288   15.3692   35.0723 H   0  0  0  0  0  0
   19.5758   12.8137   34.3993 H   0  0  0  0  0  0
   18.9891   12.4389   35.9901 H   0  0  0  0  0  0
   18.6271    8.8079   33.9908 H   0  0  0  0  0  0
   16.1586   15.2269   36.1737 H   0  0  0  0  0  0
   14.1915   14.9367   37.4962 H   0  0  0  0  0  0
   16.2884   10.9769   35.4670 H   0  0  0  0  0  0
   12.1233   14.2290   37.1586 H   0  0  0  0  0  0
   10.0387   14.3407   37.7432 H   0  0  0  0  0  0
   10.1778   11.3021   37.9452 H   0  0  0  0  0  0
    8.6855   12.1866   37.9250 H   0  0  0  0  0  0
    8.8487   12.7901   35.6880 H   0  0  0  0  0  0
   10.5752   12.7458   35.6218 H   0  0  0  0  0  0
    8.8271   10.2465   35.7773 H   0  0  0  0  0  0
    9.3971   10.9670   34.3073 H   0  0  0  0  0  0
   11.0388    9.4260   34.5079 H   0  0  0  0  0  0
   11.8368   10.6688   35.4248 H   0  0  0  0  0  0
    8.6725   14.6348   39.1922 H   0  0  0  0  0  0
   12.9693   18.0992   28.4560 H   0  0  0  0  0  0
   11.6042   18.0215   29.5733 H   0  0  0  0  0  0
   12.6506   19.4374   29.5557 H   0  0  0  0  0  0
   12.5890   18.7346   32.0385 H   0  0  0  0  0  0
  1 44  1  0  0  0
  1 45  1  0  0  0
  1 46  1  0  0  0
  1  2  1  0  0  0
  2  7  1  0  0  0
  2  3  2  0  0  0
  3 47  1  0  0  0
  3  4  1  0  0  0
  4  5  2  0  0  0
  4 40  1  0  0  0
  5 37  1  0  0  0
  5  6  1  0  0  0
  6 48  1  0  0  0
  6  7  2  0  0  0
  7  8  1  0  0  0
  8  9  1  0  0  0
  8 49  1  0  0  0
  8 50  1  0  0  0
  9 10  1  0  0  0
  9 13  1  0  0  0
 10 11  1  0  0  0
 10 51  1  0  0  0
 10 52  1  0  0  0
 11 12  3  0  0  0
 12 53  1  0  0  0
 13 18  1  0  0  0
 13 14  2  0  0  0
 14 15  1  0  0  0
 14 54  1  0  0  0
 15 16  2  0  0  0
 15 55  1  0  0  0
 16 17  1  0  0  0
 16 20  1  0  0  0
 17 18  2  0  0  0
 17 19  1  0  0  0
 18 56  1  0  0  0
 20 21  2  0  0  0
 20 22  1  0  0  0
 22 23  1  0  0  0
 22 57  1  0  0  0
 23 24  1  0  0  0
 23 34  1  0  0  0
 23 58  1  0  0  0
 24 25  1  0  0  0
 24 59  1  0  0  0
 24 60  1  0  0  0
 25 26  1  0  0  0
 25 61  1  0  0  0
 25 62  1  0  0  0
 26 27  1  0  0  0
 26 63  1  0  0  0
 26 64  1  0  0  0
 27 28  1  0  0  0
 27 65  1  0  0  0
 27 66  1  0  0  0
 28 29  1  0  0  0
 29 30  1  0  0  0
 29 33  2  0  0  0
 30 43  1  0  0  0
 30 31  1  0  0  0
 31 32  2  0  0  0
 32 33  1  0  0  0
 34 35  2  0  0  0
 34 36  1  0  0  0
 36 67  1  0  0  0
 37 42  2  0  0  0
 37 38  1  0  0  0
 38 39  1  0  0  0
 38 71  1  0  0  0
 39 40  2  0  0  0
 39 41  1  0  0  0
 41 68  1  0  0  0
 41 69  1  0  0  0
 41 70  1  0  0  0
M  END
> <s_m_entry_id>
41673

> <s_m_entry_name>
ligand_docking-pose.33

> <s_m_Source_Path>
/home/csk/Desktop/cluster/DUD-E-result/tysy

> <s_m_Source_File>
ligand_docking-pose.sdf

> <i_m_Source_File_Index>
33

> <i_lp_mmshare_version>
53161

> <i_f3d_flags>
0

> <r_lp_tautomer_probability>
0.2651814

> <s_lp_Force_Field>
OPLS_2005

> <r_lp_Energy>
29.499665

> <b_lp_Chiralities_Consistent>
1

> <s_lp_Variant>
207321-2

> <s_i_glide_gridfile>
glide-grid_1syn

> <i_i_glide_lignum>
216

> <i_i_glide_rotatable_bonds>
16

> <r_i_docking_score>
-8.86025555979853

> <r_i_glide_ligand_efficiency>
-0.210958465709489

> <r_i_glide_ligand_efficiency_sa>
-0.73329724685694

> <r_i_glide_ligand_efficiency_ln>
-1.87017168221386

> <r_i_glide_gscore>
-8.86025555979853

> <r_i_glide_lipo>
-3.55814895878552

> <r_i_glide_hbond>
0

> <r_i_glide_metal>
0

> <r_i_glide_rewards>
-1.06696124968829

> <r_i_glide_evdw>
-66.7275695800781

> <r_i_glide_ecoul>
-10.6000146865845

> <r_i_glide_erotb>
0.72499064435639

> <r_i_glide_esite>
-0.0337553136895239

> <r_i_glide_emodel>
-102.132524715138

> <r_i_glide_energy>
-77.3275842666626

> <r_i_glide_einternal>
25.5819549560547

> <i_i_glide_confnum>
13

> <i_i_glide_posenum>
26

> <r_i_glide_eff_state_penalty>
0

> <s_user_duplicate_titles>
207321

> <s_m_subgroup_title>
dock_pv

> <s_m_subgroupid>
dock_pv1

> <b_m_subgroup_collapsed>
0

$$$$
54787
                    3D
 Schrodinger Suite 2021-1.
 59 61  0  0  1  0            999 V2000
   17.4312   10.8668   35.6122 C   0  0  0  0  0  0
   18.3113   11.5603   34.7910 C   0  0  0  0  0  0
   18.0799   12.8980   34.4853 C   0  0  0  0  0  0
   16.9860   13.5563   35.0560 C   0  0  0  0  0  0
   16.1072   12.8656   35.8883 C   0  0  0  0  0  0
   16.3110   11.5039   36.1624 C   0  0  0  0  0  0
   15.3922   10.7241   37.0754 C   0  0  0  0  0  0
   15.7919    9.6910   37.6152 O   0  0  0  0  0  0
   14.1536   11.2169   37.2685 N   0  0  0  0  0  0
   13.1388   10.6262   38.1618 C   0  0  2  0  0  0
   11.9689   10.0062   37.3380 C   0  0  0  0  0  0
   12.3339    9.0482   36.1745 C   0  0  0  0  0  0
   13.0302    7.7442   36.5842 C   0  0  0  0  0  0
   13.5856    7.5545   37.6627 O   0  0  0  0  0  0
   12.9920    6.8121   35.5910 O   0  0  0  0  0  0
   12.6502   11.6251   39.2424 C   0  0  0  0  0  0
   11.5210   11.6446   39.6867 O   0  0  0  0  0  0
   13.6670   12.4403   39.6476 O   0  0  0  0  0  0
   18.9697   13.5064   33.5907 N   0  0  0  0  0  0
   18.7317   14.8077   32.9793 C   0  0  0  0  0  0
   17.9996   14.7455   31.6136 C   0  0  0  0  0  0
   16.4788   15.0604   31.5973 C   0  0  2  0  0  0
   15.9337   15.2615   30.1521 C   0  0  0  0  0  0
   14.4808   15.8208   30.0602 C   0  0  0  0  0  0
   14.1924   16.8820   31.1257 C   0  0  0  0  0  0
   15.0030   16.9930   32.2164 C   0  0  0  0  0  0
   14.6975   18.0223   33.2129 C   0  0  0  0  0  0
   13.6353   18.7896   32.8892 N   0  0  0  0  0  0
   12.8882   18.6713   31.7634 C   0  0  0  0  0  0
   13.1338   17.7325   30.9149 N   0  0  0  0  0  0
   11.8450   19.5947   31.5910 N   0  0  0  0  0  0
   15.3132   18.2271   34.2529 O   0  0  0  0  0  0
   16.1964   16.2897   32.3332 N   0  0  0  0  0  0
   17.6376    9.8280   35.8193 H   0  0  0  0  0  0
   19.1643   11.0448   34.3708 H   0  0  0  0  0  0
   16.7870   14.5960   34.8524 H   0  0  0  0  0  0
   15.2776   13.4124   36.3122 H   0  0  0  0  0  0
   13.8668   12.0293   36.7432 H   0  0  0  0  0  0
   13.5938    9.8253   38.7458 H   0  0  0  0  0  0
   11.3673   10.8117   36.9127 H   0  0  0  0  0  0
   11.2995    9.4718   38.0150 H   0  0  0  0  0  0
   12.9608    9.5584   35.4428 H   0  0  0  0  0  0
   11.4137    8.7866   35.6504 H   0  0  0  0  0  0
   12.3517    7.0278   34.8969 H   0  0  0  0  0  0
   14.4683   12.2605   39.1493 H   0  0  0  0  0  0
   19.6394   12.8992   33.1179 H   0  0  0  0  0  0
   18.2667   15.5146   33.6635 H   0  0  0  0  0  0
   19.7231   15.2321   32.8265 H   0  0  0  0  0  0
   18.5126   15.4280   30.9399 H   0  0  0  0  0  0
   18.1596   13.7646   31.1617 H   0  0  0  0  0  0
   15.9554   14.2298   32.0585 H   0  0  0  0  0  0
   16.5931   15.9435   29.6162 H   0  0  0  0  0  0
   15.9997   14.3199   29.6046 H   0  0  0  0  0  0
   14.2814   16.1997   29.0571 H   0  0  0  0  0  0
   13.7784   15.0011   30.2140 H   0  0  0  0  0  0
   11.1423   19.4278   30.8793 H   0  0  0  0  0  0
   11.4731   20.0697   32.3976 H   0  0  0  0  0  0
   13.4077   19.5095   33.5631 H   0  0  0  0  0  0
   16.7223   16.3604   33.1951 H   0  0  0  0  0  0
  1  6  1  0  0  0
  1  2  2  0  0  0
  1 34  1  0  0  0
  2  3  1  0  0  0
  2 35  1  0  0  0
  3  4  2  0  0  0
  3 19  1  0  0  0
  4  5  1  0  0  0
  4 36  1  0  0  0
  5  6  2  0  0  0
  5 37  1  0  0  0
  6  7  1  0  0  0
  7  8  2  0  0  0
  7  9  1  0  0  0
  9 10  1  0  0  0
  9 38  1  0  0  0
 10 11  1  0  0  0
 10 16  1  0  0  0
 10 39  1  0  0  0
 11 12  1  0  0  0
 11 40  1  0  0  0
 11 41  1  0  0  0
 12 13  1  0  0  0
 12 42  1  0  0  0
 12 43  1  0  0  0
 13 14  2  0  0  0
 13 15  1  0  0  0
 15 44  1  0  0  0
 16 17  2  0  0  0
 16 18  1  0  0  0
 18 45  1  0  0  0
 19 20  1  0  0  0
 19 46  1  0  0  0
 20 21  1  0  0  0
 20 47  1  0  0  0
 20 48  1  0  0  0
 21 22  1  0  0  0
 21 49  1  0  0  0
 21 50  1  0  0  0
 22 23  1  0  0  0
 22 51  1  0  0  0
 22 33  1  0  0  0
 23 24  1  0  0  0
 23 52  1  0  0  0
 23 53  1  0  0  0
 24 54  1  0  0  0
 24 55  1  0  0  0
 24 25  1  0  0  0
 25 26  2  0  0  0
 25 30  1  0  0  0
 26 33  1  0  0  0
 26 27  1  0  0  0
 27 32  2  0  0  0
 27 28  1  0  0  0
 28 58  1  0  0  0
 28 29  1  0  0  0
 29 31  1  0  0  0
 29 30  2  0  0  0
 31 56  1  0  0  0
 31 57  1  0  0  0
 33 59  1  0  0  0
M  END
> <s_m_entry_id>
41681

> <s_m_entry_name>
ligand_docking-pose.41

> <s_m_Source_Path>
/home/csk/Desktop/cluster/DUD-E-result/tysy

> <s_m_Source_File>
ligand_docking-pose.sdf

> <i_m_Source_File_Index>
41

> <i_lp_mmshare_version>
53161

> <i_f3d_flags>
0

> <r_lp_tautomer_probability>
0.0243188113840173

> <s_lp_Force_Field>
OPLS_2005

> <r_lp_Energy>
19.192357

> <b_lp_Chiralities_Consistent>
1

> <s_lp_Variant>
54787-9

> <s_i_glide_gridfile>
glide-grid_1syn

> <i_i_glide_lignum>
72

> <i_i_glide_rotatable_bonds>
13

> <r_i_docking_score>
-8.70080073667498

> <r_i_glide_ligand_efficiency>
-0.26366062838409

> <r_i_glide_ligand_efficiency_sa>
-0.845700516024575

> <r_i_glide_ligand_efficiency_ln>
-1.93501303350134

> <r_i_glide_gscore>
-8.70080073667498

> <r_i_glide_lipo>
-2.83877152209274

> <r_i_glide_hbond>
-0.866584455741995

> <r_i_glide_metal>
0

> <r_i_glide_rewards>
-0.939387274467381

> <r_i_glide_evdw>
-49.5890998840332

> <r_i_glide_ecoul>
-16.889045715332

> <r_i_glide_erotb>
1.05257220231975

> <r_i_glide_esite>
-0.0958178351911484

> <r_i_glide_emodel>
-99.938527075771

> <r_i_glide_energy>
-66.4781455993652

> <r_i_glide_einternal>
9.18573665618896

> <i_i_glide_confnum>
41

> <i_i_glide_posenum>
317

> <r_i_glide_eff_state_penalty>
0

> <s_user_duplicate_titles>
54787

> <s_m_subgroup_title>
dock_pv

> <s_m_subgroupid>
dock_pv1

> <b_m_subgroup_collapsed>
0

$$$$
231111
                    3D
 Schrodinger Suite 2021-1.
 52 54  0  0  1  0            999 V2000
   16.7388   14.6278   30.3047 C   0  0  0  0  0  0
   15.7685   15.6062   30.9332 C   0  0  0  0  0  0
   15.6552   15.8155   32.4564 C   0  0  2  0  0  0
   14.9968   17.1719   32.4469 C   0  0  1  0  0  0
   14.0787   16.9881   31.2408 C   0  0  2  0  0  0
   14.9207   16.3206   30.2765 N   0  0  0  0  0  0
   13.3891   18.2274   30.8759 N   0  0  0  0  0  0
   12.9930   18.9695   31.8543 C   0  0  0  0  0  0
   13.2950   18.6765   33.1586 N   0  0  0  0  0  0
   14.1606   17.7395   33.6117 C   0  0  0  0  0  0
   14.2892   17.4405   34.7909 O   0  0  0  0  0  0
   12.1923   20.0984   31.6150 N   0  0  0  0  0  0
   17.2409   15.7800   33.3652 S   0  0  0  0  0  0
   16.9925   14.4710   34.5169 C   0  0  0  0  0  0
   16.0016   14.6037   35.4840 C   0  0  0  0  0  0
   15.6216   13.5039   36.2383 C   0  0  0  0  0  0
   16.2452   12.2604   36.0453 C   0  0  0  0  0  0
   17.3269   12.1766   35.1546 C   0  0  0  0  0  0
   17.6954   13.2762   34.3813 C   0  0  0  0  0  0
   15.7842   11.0278   36.7909 C   0  0  0  0  0  0
   16.4813   10.0147   36.8277 O   0  0  0  0  0  0
   14.5937   11.1240   37.4148 N   0  0  0  0  0  0
   13.9707   10.1367   38.3110 C   0  0  2  0  0  0
   13.3047    8.9894   37.4887 C   0  0  0  0  0  0
   14.1483    7.6970   37.4487 C   0  0  0  0  0  0
   13.6550    6.7082   36.3966 C   0  0  0  0  0  0
   13.3962    7.0283   35.2408 O   0  0  0  0  0  0
   13.6080    5.4294   36.8686 O   0  0  0  0  0  0
   13.0366   10.8280   39.3397 C   0  0  0  0  0  0
   11.9786   10.3710   39.7205 O   0  0  0  0  0  0
   13.5884   11.9961   39.7846 O   0  0  0  0  0  0
   16.6027   13.6273   30.7149 H   0  0  0  0  0  0
   14.9967   15.0584   32.8834 H   0  0  0  0  0  0
   17.7704   14.9273   30.4882 H   0  0  0  0  0  0
   15.7501   17.9433   32.2663 H   0  0  0  0  0  0
   13.2657   16.2795   31.4508 H   0  0  0  0  0  0
   16.5932   14.5644   29.2255 H   0  0  0  0  0  0
   12.8771   19.2504   33.8824 H   0  0  0  0  0  0
   11.9746   20.2902   30.6479 H   0  0  0  0  0  0
   12.4789   20.9532   32.0685 H   0  0  0  0  0  0
   15.4867   15.5394   35.6223 H   0  0  0  0  0  0
   14.8231   13.6438   36.9515 H   0  0  0  0  0  0
   17.8541   11.2437   35.0062 H   0  0  0  0  0  0
   18.4768   13.1768   33.6395 H   0  0  0  0  0  0
   14.0239   11.9290   37.2031 H   0  0  0  0  0  0
   14.7594    9.7073   38.9326 H   0  0  0  0  0  0
   12.3352    8.7069   37.9052 H   0  0  0  0  0  0
   13.0745    9.3310   36.4760 H   0  0  0  0  0  0
   15.1856    7.9168   37.2033 H   0  0  0  0  0  0
   14.1555    7.2248   38.4321 H   0  0  0  0  0  0
   13.4122    4.7743   36.1806 H   0  0  0  0  0  0
   14.4306   12.1688   39.3574 H   0  0  0  0  0  0
  1  2  1  0  0  0
  1 32  1  0  0  0
  1 34  1  0  0  0
  1 37  1  0  0  0
  2  3  1  0  0  0
  2  6  2  0  0  0
  3  4  1  0  0  0
  3 13  1  0  0  0
  3 33  1  0  0  0
  4 10  1  0  0  0
  4  5  1  0  0  0
  4 35  1  0  0  0
  5  7  1  0  0  0
  5 36  1  0  0  0
  5  6  1  0  0  0
  7  8  2  0  0  0
  8  9  1  0  0  0
  8 12  1  0  0  0
  9 10  1  0  0  0
  9 38  1  0  0  0
 10 11  2  0  0  0
 12 39  1  0  0  0
 12 40  1  0  0  0
 13 14  1  0  0  0
 14 19  1  0  0  0
 14 15  2  0  0  0
 15 16  1  0  0  0
 15 41  1  0  0  0
 16 17  2  0  0  0
 16 42  1  0  0  0
 17 18  1  0  0  0
 17 20  1  0  0  0
 18 19  2  0  0  0
 18 43  1  0  0  0
 19 44  1  0  0  0
 20 21  2  0  0  0
 20 22  1  0  0  0
 22 23  1  0  0  0
 22 45  1  0  0  0
 23 24  1  0  0  0
 23 29  1  0  0  0
 23 46  1  0  0  0
 24 25  1  0  0  0
 24 47  1  0  0  0
 24 48  1  0  0  0
 25 26  1  0  0  0
 25 49  1  0  0  0
 25 50  1  0  0  0
 26 27  2  0  0  0
 26 28  1  0  0  0
 28 51  1  0  0  0
 29 30  2  0  0  0
 29 31  1  0  0  0
 31 52  1  0  0  0
M  END
> <s_m_entry_id>
41682

> <s_m_entry_name>
ligand_docking-pose.42

> <s_m_Source_Path>
/home/csk/Desktop/cluster/DUD-E-result/tysy

> <s_m_Source_File>
ligand_docking-pose.sdf

> <i_m_Source_File_Index>
42

> <i_lp_mmshare_version>
53161

> <i_f3d_flags>
0

> <r_lp_tautomer_probability>
0.384609230769231

> <s_lp_Force_Field>
OPLS_2005

> <r_lp_Energy>
43.788277

> <b_lp_Chiralities_Consistent>
1

> <s_lp_Variant>
231111-11

> <s_i_glide_gridfile>
glide-grid_1syn

> <i_i_glide_lignum>
338

> <i_i_glide_rotatable_bonds>
11

> <r_i_docking_score>
-8.69394136125175

> <r_i_glide_ligand_efficiency>
-0.280449721330702

> <r_i_glide_ligand_efficiency_sa>
-0.880999327548377

> <r_i_glide_ligand_efficiency_ln>
-1.96075021426708

> <r_i_glide_gscore>
-8.69394136125175

> <r_i_glide_lipo>
-2.6215002732916

> <r_i_glide_hbond>
-0.659343621593853

> <r_i_glide_metal>
0

> <r_i_glide_rewards>
-1.69567405818154

> <r_i_glide_evdw>
-49.9177894592285

> <r_i_glide_ecoul>
-14.0842704772949

> <r_i_glide_erotb>
0.900101540785158

> <r_i_glide_esite>
-0.00899490441424678

> <r_i_glide_emodel>
-89.7675680325107

> <r_i_glide_energy>
-64.0020599365234

> <r_i_glide_einternal>
7.13979005813599

> <i_i_glide_confnum>
77

> <i_i_glide_posenum>
262

> <r_i_glide_eff_state_penalty>
0

> <s_user_duplicate_titles>
231111

> <s_m_subgroup_title>
dock_pv

> <s_m_subgroupid>
dock_pv1

> <b_m_subgroup_collapsed>
0

$$$$
61643
                    3D
 Schrodinger Suite 2021-1.
 55 57  0  0  1  0            999 V2000
   12.9914   18.2614   28.8244 C   0  0  0  0  0  0
   13.7336   17.6293   29.9744 C   0  0  0  0  0  0
   14.6011   16.7058   29.7685 N   0  0  0  0  0  0
   15.3439   16.2030   30.8513 C   0  0  0  0  0  0
   16.3099   15.2287   30.6085 C   0  0  0  0  0  0
   17.1235   14.7795   31.6545 C   0  0  0  0  0  0
   16.9582   15.2910   32.9506 C   0  0  0  0  0  0
   15.9601   16.2366   33.2012 C   0  0  0  0  0  0
   15.1689   16.6929   32.1491 C   0  0  0  0  0  0
   14.1086   17.7406   32.3766 C   0  0  0  0  0  0
   13.4904   18.1086   31.2305 N   0  0  0  0  0  0
   13.8055   18.2284   33.4589 O   0  0  0  0  0  0
   17.8906   14.8787   34.0831 C   0  0  0  0  0  0
   17.6704   13.4972   34.5248 N   0  0  0  0  0  0
   18.6146   12.5520   33.9073 C   0  0  0  0  0  0
   18.9928   11.4379   34.7905 C   0  0  0  0  0  0
   19.2510   10.5580   35.5909 C   0  0  0  0  0  0
   16.5824   13.1097   35.3024 C   0  0  0  0  0  0
   16.1063   11.8248   35.5826 C   0  0  0  0  0  0
   15.0855   11.7143   36.3821 N   0  0  0  0  0  0
   14.6437   12.8735   36.7906 C   0  0  0  0  0  0
   15.5256   14.2265   36.1277 S   0  0  0  0  0  0
   13.5327   13.1163   37.6526 C   0  0  0  0  0  0
   12.9887   14.2150   37.7576 O   0  0  0  0  0  0
   13.1302   12.0137   38.3137 N   0  0  0  0  0  0
   11.9641   11.8635   39.1832 C   0  0  2  0  0  0
   10.6817   12.0121   38.3101 C   0  0  0  0  0  0
    9.3268   12.0227   39.0376 C   0  0  0  0  0  0
    8.8257   13.4523   39.1910 C   0  0  0  0  0  0
    9.2044   14.2275   40.0656 O   0  0  0  0  0  0
    7.9795   13.8273   38.1976 O   0  0  0  0  0  0
   12.0457   12.6921   40.4919 C   0  0  0  0  0  0
   11.9002   12.2012   41.5863 O   0  0  0  0  0  0
   12.3225   14.0044   40.2751 O   0  0  0  0  0  0
   11.9978   10.8237   39.5128 H   0  0  0  0  0  0
   11.9538   18.4761   29.0833 H   0  0  0  0  0  0
   13.4691   19.1948   28.5310 H   0  0  0  0  0  0
   12.9932   17.6048   27.9579 H   0  0  0  0  0  0
   16.4469   14.8467   29.6082 H   0  0  0  0  0  0
   17.8951   14.0496   31.4514 H   0  0  0  0  0  0
   15.8125   16.6312   34.1972 H   0  0  0  0  0  0
   12.8037   18.8348   31.3529 H   0  0  0  0  0  0
   18.9180   15.0356   33.7499 H   0  0  0  0  0  0
   17.7790   15.5454   34.9371 H   0  0  0  0  0  0
   18.1894   12.1295   32.9985 H   0  0  0  0  0  0
   19.5465   13.0340   33.6092 H   0  0  0  0  0  0
   19.4010    9.8273   36.3457 H   0  0  0  0  0  0
   16.4990   10.9015   35.1910 H   0  0  0  0  0  0
   13.6729   11.1737   38.1818 H   0  0  0  0  0  0
   10.7505   12.8959   37.6720 H   0  0  0  0  0  0
   10.6604   11.1828   37.6005 H   0  0  0  0  0  0
    8.5894   11.4652   38.4581 H   0  0  0  0  0  0
    9.3907   11.5272   40.0037 H   0  0  0  0  0  0
    7.7908   14.7733   38.3103 H   0  0  0  0  0  0
   12.4641   14.1852   39.3321 H   0  0  0  0  0  0
  1 36  1  0  0  0
  1 37  1  0  0  0
  1 38  1  0  0  0
  1  2  1  0  0  0
  2  3  2  0  0  0
  2 11  1  0  0  0
  3  4  1  0  0  0
  4  9  2  0  0  0
  4  5  1  0  0  0
  5  6  2  0  0  0
  5 39  1  0  0  0
  6  7  1  0  0  0
  6 40  1  0  0  0
  7  8  2  0  0  0
  7 13  1  0  0  0
  8  9  1  0  0  0
  8 41  1  0  0  0
  9 10  1  0  0  0
 10 12  2  0  0  0
 10 11  1  0  0  0
 11 42  1  0  0  0
 13 14  1  0  0  0
 13 43  1  0  0  0
 13 44  1  0  0  0
 14 15  1  0  0  0
 14 18  1  0  0  0
 15 16  1  0  0  0
 15 45  1  0  0  0
 15 46  1  0  0  0
 16 17  3  0  0  0
 17 47  1  0  0  0
 18 22  1  0  0  0
 18 19  2  0  0  0
 19 20  1  0  0  0
 19 48  1  0  0  0
 20 21  2  0  0  0
 21 22  1  0  0  0
 21 23  1  0  0  0
 23 24  2  0  0  0
 23 25  1  0  0  0
 25 26  1  0  0  0
 25 49  1  0  0  0
 26 35  1  0  0  0
 26 27  1  0  0  0
 26 32  1  0  0  0
 27 28  1  0  0  0
 27 50  1  0  0  0
 27 51  1  0  0  0
 28 29  1  0  0  0
 28 52  1  0  0  0
 28 53  1  0  0  0
 29 30  2  0  0  0
 29 31  1  0  0  0
 31 54  1  0  0  0
 32 33  2  0  0  0
 32 34  1  0  0  0
 34 55  1  0  0  0
M  END
> <s_m_entry_id>
41691

> <s_m_entry_name>
ligand_docking-pose.51

> <s_m_Source_Path>
/home/csk/Desktop/cluster/DUD-E-result/tysy

> <s_m_Source_File>
ligand_docking-pose.sdf

> <i_m_Source_File_Index>
51

> <i_lp_mmshare_version>
53161

> <i_f3d_flags>
0

> <r_lp_tautomer_probability>
0.883938

> <s_lp_Force_Field>
OPLS_2005

> <r_lp_Energy>
17.765269

> <b_lp_Chiralities_Consistent>
1

> <s_lp_Variant>
61643-1

> <s_i_glide_gridfile>
glide-grid_1syn

> <i_i_glide_lignum>
652

> <i_i_glide_rotatable_bonds>
14

> <r_i_docking_score>
-8.62026611803192

> <r_i_glide_ligand_efficiency>
-0.253537238765645

> <r_i_glide_ligand_efficiency_sa>
-0.821362229803016

> <r_i_glide_ligand_efficiency_ln>
-1.90445857574788

> <r_i_glide_gscore>
-8.62026611803192

> <r_i_glide_lipo>
-3.46110432543926

> <r_i_glide_hbond>
-0.35874740555415

> <r_i_glide_metal>
0

> <r_i_glide_rewards>
-1.266449036169

> <r_i_glide_evdw>
-52.7831077575684

> <r_i_glide_ecoul>
-12.4487972259521

> <r_i_glide_erotb>
1.04210915438153

> <r_i_glide_esite>
-0.069599533479786

> <r_i_glide_emodel>
-98.0630487829713

> <r_i_glide_energy>
-65.2319049835205

> <r_i_glide_einternal>
8.18191337585449

> <i_i_glide_confnum>
79

> <i_i_glide_posenum>
106

> <r_i_glide_eff_state_penalty>
0

> <s_user_duplicate_titles>
61643

> <s_m_subgroup_title>
dock_pv

> <s_m_subgroupid>
dock_pv1

> <b_m_subgroup_collapsed>
0

$$$$
220397
                    3D
 Schrodinger Suite 2021-1.
 52 55  0  0  1  0            999 V2000
   14.4599   17.8783   34.7528 C   0  0  0  0  0  0
   14.3307   17.4818   33.2796 C   0  0  0  0  0  0
   15.0691   16.4974   32.6726 C   0  0  0  0  0  0
   14.9566   16.2213   31.1977 C   0  0  0  0  0  0
   15.4530   15.2645   30.5993 O   0  0  0  0  0  0
   14.1710   17.2537   30.4398 C   0  0  0  0  0  0
   14.1629   17.2183   29.0371 C   0  0  0  0  0  0
   13.3951   18.1156   28.3025 C   0  0  0  0  0  0
   12.5922   19.0440   28.9493 C   0  0  0  0  0  0
   12.5915   19.0959   30.3351 C   0  0  0  0  0  0
   13.3905   18.2270   31.0965 C   0  0  0  0  0  0
   13.3342   18.3259   32.5825 C   0  0  0  0  0  0
   12.4880   19.0280   33.1356 O   0  0  0  0  0  0
   15.8988   15.5529   33.4681 C   0  0  0  0  0  0
   15.4070   15.0231   34.6178 C   0  0  0  0  0  0
   16.0225   14.0504   35.3825 N   0  0  0  0  0  0
   17.2797   13.5922   35.0329 C   0  0  0  0  0  0
   17.9215   12.7059   35.5910 O   0  0  0  0  0  0
   17.7928   14.1728   33.9117 N   0  0  0  0  0  0
   17.2378   15.0887   33.0758 C   0  0  0  0  0  0
   17.8447   15.4279   32.0703 O   0  0  0  0  0  0
   15.3058   13.3067   36.4246 C   0  0  1  0  0  0
   13.8952   13.7223   36.8459 C   0  0  0  0  0  0
   13.4447   12.4794   37.5974 C   0  0  1  0  0  0
   14.0964   11.3294   36.8016 C   0  0  1  0  0  0
   15.1554   11.9576   36.0810 O   0  0  0  0  0  0
   14.6561   10.1524   37.6359 C   0  0  0  0  0  0
   15.2965    9.1514   36.8557 O   0  0  0  0  0  0
   14.4671    8.0710   35.9554 P   0  0  0  0  0  0
   14.5812    8.2281   34.4830 O   0  0  0  0  0  0
   14.9905    6.6489   36.5258 O   0  0  0  0  0  0
   12.9454    8.1365   36.5033 O   0  0  0  0  0  0
   13.7926   12.5629   38.9685 O   0  0  0  0  0  0
   18.6991   13.8332   33.6236 H   0  0  0  0  0  0
   14.4511   18.9616   34.8874 H   0  0  0  0  0  0
   13.6432   17.4427   35.3274 H   0  0  0  0  0  0
   15.3920   17.5403   35.1909 H   0  0  0  0  0  0
   14.7434   16.4836   28.4972 H   0  0  0  0  0  0
   13.3939   18.0693   27.2227 H   0  0  0  0  0  0
   11.9655   19.7195   28.3838 H   0  0  0  0  0  0
   11.9575   19.8331   30.8092 H   0  0  0  0  0  0
   14.4263   15.2836   34.9741 H   0  0  0  0  0  0
   15.9851   13.3607   37.2776 H   0  0  0  0  0  0
   13.2603   13.8601   35.9717 H   0  0  0  0  0  0
   13.9129   14.6281   37.4475 H   0  0  0  0  0  0
   12.3582   12.3902   37.5425 H   0  0  0  0  0  0
   13.3831   10.9575   36.0651 H   0  0  0  0  0  0
   13.8665    9.7054   38.2403 H   0  0  0  0  0  0
   15.3921   10.5304   38.3445 H   0  0  0  0  0  0
   14.5572    5.8687   36.1314 H   0  0  0  0  0  0
   12.2668    8.0856   35.8005 H   0  0  0  0  0  0
   14.7421   12.7074   39.0293 H   0  0  0  0  0  0
  1  2  1  0  0  0
  1 35  1  0  0  0
  1 36  1  0  0  0
  1 37  1  0  0  0
  2 12  1  0  0  0
  2  3  2  0  0  0
  3  4  1  0  0  0
  3 14  1  0  0  0
  4  5  2  0  0  0
  4  6  1  0  0  0
  6 11  2  0  0  0
  6  7  1  0  0  0
  7  8  2  0  0  0
  7 38  1  0  0  0
  8  9  1  0  0  0
  8 39  1  0  0  0
  9 10  2  0  0  0
  9 40  1  0  0  0
 10 11  1  0  0  0
 10 41  1  0  0  0
 11 12  1  0  0  0
 12 13  2  0  0  0
 14 20  1  0  0  0
 14 15  2  0  0  0
 15 16  1  0  0  0
 15 42  1  0  0  0
 16 17  1  0  0  0
 16 22  1  0  0  0
 17 18  2  0  0  0
 17 19  1  0  0  0
 19 34  1  0  0  0
 19 20  1  0  0  0
 20 21  2  0  0  0
 22 26  1  0  0  0
 22 23  1  0  0  0
 22 43  1  0  0  0
 23 24  1  0  0  0
 23 44  1  0  0  0
 23 45  1  0  0  0
 24 25  1  0  0  0
 24 33  1  0  0  0
 24 46  1  0  0  0
 25 26  1  0  0  0
 25 27  1  0  0  0
 25 47  1  0  0  0
 27 28  1  0  0  0
 27 48  1  0  0  0
 27 49  1  0  0  0
 28 29  1  0  0  0
 29 30  2  0  0  0
 29 31  1  0  0  0
 29 32  1  0  0  0
 31 50  1  0  0  0
 32 51  1  0  0  0
 33 52  1  0  0  0
M  END
> <s_m_entry_id>
41693

> <s_m_entry_name>
ligand_docking-pose.53

> <s_m_Source_Path>
/home/csk/Desktop/cluster/DUD-E-result/tysy

> <s_m_Source_File>
ligand_docking-pose.sdf

> <i_m_Source_File_Index>
53

> <i_lp_mmshare_version>
53161

> <i_f3d_flags>
0

> <r_lp_tautomer_probability>
1

> <s_lp_Force_Field>
OPLS_2005

> <r_lp_Energy>
30.128808

> <b_lp_Chiralities_Consistent>
1

> <s_lp_Variant>
220397-2

> <s_i_glide_gridfile>
glide-grid_1syn

> <i_i_glide_lignum>
456

> <i_i_glide_rotatable_bonds>
8

> <r_i_docking_score>
-8.59065130988092

> <r_i_glide_ligand_efficiency>
-0.260322766966088

> <r_i_glide_ligand_efficiency_sa>
-0.834994210950044

> <r_i_glide_ligand_efficiency_ln>
-1.91051637130555

> <r_i_glide_gscore>
-8.59065130988092

> <r_i_glide_lipo>
-2.87769941578981

> <r_i_glide_hbond>
-0.439535746730563

> <r_i_glide_metal>
0

> <r_i_glide_rewards>
-1.90774316678431

> <r_i_glide_evdw>
-52.3913040161133

> <r_i_glide_ecoul>
-7.92604207992554

> <r_i_glide_erotb>
0.442798532218259

> <r_i_glide_esite>
0

> <r_i_glide_emodel>
-80.7250997740242

> <r_i_glide_energy>
-60.3173460960388

> <r_i_glide_einternal>
12.7871170043945

> <i_i_glide_confnum>
206

> <i_i_glide_posenum>
207

> <r_i_glide_eff_state_penalty>
0

> <s_user_duplicate_titles>
220397

> <s_m_subgroup_title>
dock_pv

> <s_m_subgroupid>
dock_pv1

> <b_m_subgroup_collapsed>
0

$$$$
95145
                    3D
 Schrodinger Suite 2021-1.
 52 54  0  0  1  0            999 V2000
   17.8463   12.9481   34.5727 C   0  0  0  0  0  0
   17.2971   11.8239   35.1915 C   0  0  0  0  0  0
   16.1526   11.9380   35.9936 C   0  0  0  0  0  0
   15.5957   13.2133   36.1885 C   0  0  0  0  0  0
   16.1550   14.3333   35.5902 C   0  0  0  0  0  0
   17.2689   14.2079   34.7572 C   0  0  0  0  0  0
   17.8867   15.4330   34.0820 C   0  0  0  0  0  0
   16.8921   16.5223   33.5987 C   0  0  0  0  0  0
   16.1129   16.2180   32.3389 C   0  0  0  0  0  0
   16.3762   15.2699   31.3595 C   0  0  0  0  0  0
   15.4690   15.3716   30.3343 N   0  0  0  0  0  0
   14.5782   16.3760   30.6195 C   0  0  0  0  0  0
   14.9431   16.9309   31.8780 C   0  0  0  0  0  0
   14.1212   17.9896   32.3343 C   0  0  0  0  0  0
   13.0737   18.4032   31.5787 N   0  0  0  0  0  0
   12.8574   17.7870   30.3959 C   0  0  0  0  0  0
   13.5592   16.7665   29.8546 N   0  0  0  0  0  0
   11.7920   18.2403   29.6484 N   0  0  0  0  0  0
   14.4245   18.5605   33.5404 O   0  0  0  0  0  0
   15.5227   10.7061   36.6164 C   0  0  0  0  0  0
   15.7874    9.5708   36.2197 O   0  0  0  0  0  0
   14.6524   10.9554   37.6119 N   0  0  0  0  0  0
   13.8163   10.0224   38.3771 C   0  0  2  0  0  0
   12.7687   10.8612   39.1727 C   0  0  0  0  0  0
   13.3540   11.9409   40.1249 C   0  0  0  0  0  0
   12.2960   12.8369   40.7772 C   0  0  0  0  0  0
   12.2147   13.0281   41.9895 O   0  0  0  0  0  0
   11.4640   13.4281   39.8730 O   0  0  0  0  0  0
   14.5939    9.0095   39.2557 C   0  0  0  0  0  0
   15.7918    9.0279   39.4445 O   0  0  0  0  0  0
   13.7275    8.0895   39.7762 O   0  0  0  0  0  0
   15.4831   14.7795   29.5175 H   0  0  0  0  0  0
   18.7205   12.8335   33.9446 H   0  0  0  0  0  0
   17.7578   10.8604   35.0218 H   0  0  0  0  0  0
   14.7171   13.3698   36.7955 H   0  0  0  0  0  0
   15.7047   15.2930   35.7886 H   0  0  0  0  0  0
   18.5655   15.8777   34.8109 H   0  0  0  0  0  0
   18.5223   15.1277   33.2491 H   0  0  0  0  0  0
   16.1921   16.7803   34.3886 H   0  0  0  0  0  0
   17.4475   17.4402   33.4429 H   0  0  0  0  0  0
   17.1618   14.5280   31.3010 H   0  0  0  0  0  0
   11.1767   18.9593   30.0152 H   0  0  0  0  0  0
   11.6103   17.8034   28.7631 H   0  0  0  0  0  0
   13.7947   19.2564   33.7655 H   0  0  0  0  0  0
   14.5843   11.9157   37.9033 H   0  0  0  0  0  0
   13.2827    9.4262   37.6332 H   0  0  0  0  0  0
   12.1094   10.2043   39.7426 H   0  0  0  0  0  0
   12.1093   11.3333   38.4425 H   0  0  0  0  0  0
   14.0509   12.5967   39.6022 H   0  0  0  0  0  0
   13.9255   11.4576   40.9194 H   0  0  0  0  0  0
   11.6644   13.2076   38.9612 H   0  0  0  0  0  0
   12.8276    8.2012   39.4665 H   0  0  0  0  0  0
  1  6  1  0  0  0
  1  2  2  0  0  0
  1 33  1  0  0  0
  2  3  1  0  0  0
  2 34  1  0  0  0
  3  4  2  0  0  0
  3 20  1  0  0  0
  4  5  1  0  0  0
  4 35  1  0  0  0
  5  6  2  0  0  0
  5 36  1  0  0  0
  6  7  1  0  0  0
  7  8  1  0  0  0
  7 37  1  0  0  0
  7 38  1  0  0  0
  8  9  1  0  0  0
  8 39  1  0  0  0
  8 40  1  0  0  0
  9 13  1  0  0  0
  9 10  2  0  0  0
 10 11  1  0  0  0
 10 41  1  0  0  0
 11 32  1  0  0  0
 11 12  1  0  0  0
 12 17  1  0  0  0
 12 13  2  0  0  0
 13 14  1  0  0  0
 14 15  2  0  0  0
 14 19  1  0  0  0
 15 16  1  0  0  0
 16 17  2  0  0  0
 16 18  1  0  0  0
 18 42  1  0  0  0
 18 43  1  0  0  0
 19 44  1  0  0  0
 20 21  2  0  0  0
 20 22  1  0  0  0
 22 23  1  0  0  0
 22 45  1  0  0  0
 23 24  1  0  0  0
 23 29  1  0  0  0
 23 46  1  0  0  0
 24 25  1  0  0  0
 24 47  1  0  0  0
 24 48  1  0  0  0
 25 26  1  0  0  0
 25 49  1  0  0  0
 25 50  1  0  0  0
 26 27  2  0  0  0
 26 28  1  0  0  0
 28 51  1  0  0  0
 29 30  2  0  0  0
 29 31  1  0  0  0
 31 52  1  0  0  0
M  END
> <s_m_entry_id>
41696

> <s_m_entry_name>
ligand_docking-pose.56

> <s_m_Source_Path>
/home/csk/Desktop/cluster/DUD-E-result/tysy

> <s_m_Source_File>
ligand_docking-pose.sdf

> <i_m_Source_File_Index>
56

> <i_lp_mmshare_version>
53161

> <i_f3d_flags>
0

> <r_lp_tautomer_probability>
1

> <s_lp_Force_Field>
OPLS_2005

> <r_lp_Energy>
4.928496

> <b_lp_Chiralities_Consistent>
1

> <s_lp_Variant>
95145-1

> <s_i_glide_gridfile>
glide-grid_1syn

> <i_i_glide_lignum>
35

> <i_i_glide_rotatable_bonds>
13

> <r_i_docking_score>
-8.57895816316175

> <r_i_glide_ligand_efficiency>
-0.276740585908444

> <r_i_glide_ligand_efficiency_sa>
-0.869347521309133

> <r_i_glide_ligand_efficiency_ln>
-1.93481797928596

> <r_i_glide_gscore>
-8.57895816316175

> <r_i_glide_lipo>
-3.03245609565566

> <r_i_glide_hbond>
-0.706376979545566

> <r_i_glide_metal>
0

> <r_i_glide_rewards>
-1.4944185016683

> <r_i_glide_evdw>
-49.3716735839844

> <r_i_glide_ecoul>
-12.5201244354248

> <r_i_glide_erotb>
1.08685565157643

> <r_i_glide_esite>
-0.0859598933557195

> <r_i_glide_emodel>
-94.4092561928257

> <r_i_glide_energy>
-61.8917980194092

> <r_i_glide_einternal>
6.11243343353271

> <i_i_glide_confnum>
129

> <i_i_glide_posenum>
206

> <r_i_glide_eff_state_penalty>
0

> <s_user_duplicate_titles>
95145

> <s_m_subgroup_title>
dock_pv

> <s_m_subgroupid>
dock_pv1

> <b_m_subgroup_collapsed>
0

$$$$
207495
                    3D
 Schrodinger Suite 2021-1.
 71 73  0  0  1  0            999 V2000
   18.2437   14.3219   31.3035 C   0  0  0  0  0  0
   17.0572   15.1136   31.8328 C   0  0  0  0  0  0
   16.1572   15.6046   30.8796 C   0  0  0  0  0  0
   15.1161   16.4390   31.2619 C   0  0  0  0  0  0
   14.9288   16.7560   32.6068 C   0  0  0  0  0  0
   15.7961   16.2424   33.5709 C   0  0  0  0  0  0
   16.8777   15.4353   33.1999 C   0  0  0  0  0  0
   17.8546   15.0135   34.3073 C   0  0  0  0  0  0
   17.6539   13.6343   34.7797 N   0  0  0  0  0  0
   18.4740   12.6382   34.0705 C   0  0  0  0  0  0
   18.9920   11.5436   34.9051 C   0  0  0  0  0  0
   19.4044   10.6267   35.5918 C   0  0  0  0  0  0
   16.4997   13.2823   35.5507 C   0  0  0  0  0  0
   15.7934   14.2341   36.3035 C   0  0  0  0  0  0
   14.6536   13.8941   37.0386 C   0  0  0  0  0  0
   14.2112   12.5694   37.0776 C   0  0  0  0  0  0
   14.9054   11.6049   36.3455 C   0  0  0  0  0  0
   16.0135   11.9650   35.5904 C   0  0  0  0  0  0
   14.4934   10.3148   36.3163 F   0  0  0  0  0  0
   12.9560   12.1819   37.7998 C   0  0  0  0  0  0
   12.9707   11.3176   38.6741 O   0  0  0  0  0  0
   11.8439   12.7620   37.3278 N   0  0  0  0  0  0
   10.4760   12.3310   37.6301 C   0  0  2  0  0  0
    9.7669   11.8457   36.3305 C   0  0  0  0  0  0
   10.3957   10.5606   35.7300 C   0  0  0  0  0  0
   10.3208   10.4531   34.1944 C   0  0  0  0  0  0
    8.8933   10.3287   33.6281 C   0  0  0  0  0  0
    8.8522   10.0068   32.1153 C   0  0  0  0  0  0
    9.3662   11.1259   31.1960 C   0  0  0  0  0  0
    9.3294   12.3194   31.4905 O   0  0  0  0  0  0
    9.8235   10.6285   30.0143 O   0  0  0  0  0  0
    9.7343   13.4337   38.4142 C   0  0  0  0  0  0
    9.8232   13.5647   39.6172 O   0  0  0  0  0  0
    8.9948   14.2288   37.5915 O   0  0  0  0  0  0
   13.7840   17.6686   33.0096 C   0  0  0  0  0  0
   13.0646   18.2342   31.9492 N   0  0  0  0  0  0
   13.2901   17.9168   30.7328 C   0  0  0  0  0  0
   14.2633   17.0244   30.3208 N   0  0  0  0  0  0
   12.4416   18.5494   29.6523 C   0  0  0  0  0  0
   13.5416   17.8284   34.2032 O   0  0  0  0  0  0
   19.1503   14.4923   31.8798 H   0  0  0  0  0  0
   18.0244   13.2549   31.2760 H   0  0  0  0  0  0
   18.4885   14.6371   30.2863 H   0  0  0  0  0  0
   16.2973   15.3751   29.8348 H   0  0  0  0  0  0
   15.6340   16.5000   34.6077 H   0  0  0  0  0  0
   18.8712   15.1480   33.9377 H   0  0  0  0  0  0
   17.8080   15.7009   35.1480 H   0  0  0  0  0  0
   17.8948   12.2278   33.2504 H   0  0  0  0  0  0
   19.3649   13.0857   33.6282 H   0  0  0  0  0  0
   19.7632    9.8301   36.1984 H   0  0  0  0  0  0
   16.1220   15.2597   36.3507 H   0  0  0  0  0  0
   14.1374   14.6671   37.5908 H   0  0  0  0  0  0
   16.4627   11.1812   35.0069 H   0  0  0  0  0  0
   11.9358   13.4868   36.6339 H   0  0  0  0  0  0
   10.4917   11.4744   38.3082 H   0  0  0  0  0  0
    8.7076   11.6622   36.5173 H   0  0  0  0  0  0
    9.8026   12.6438   35.5851 H   0  0  0  0  0  0
   11.4499   10.4886   35.9998 H   0  0  0  0  0  0
    9.9308    9.6840   36.1822 H   0  0  0  0  0  0
   10.8226   11.3131   33.7489 H   0  0  0  0  0  0
   10.9025    9.5826   33.8854 H   0  0  0  0  0  0
    8.3735    9.5305   34.1590 H   0  0  0  0  0  0
    8.3232   11.2372   33.8358 H   0  0  0  0  0  0
    9.3927    9.0785   31.9292 H   0  0  0  0  0  0
    7.8198    9.8191   31.8209 H   0  0  0  0  0  0
    9.9809    9.6747   30.0587 H   0  0  0  0  0  0
    8.5552   14.9339   38.0844 H   0  0  0  0  0  0
   11.7984   19.3375   30.0476 H   0  0  0  0  0  0
   13.0636   18.9971   28.8782 H   0  0  0  0  0  0
   11.7951   17.8070   29.1853 H   0  0  0  0  0  0
   14.3847   16.8221   29.3436 H   0  0  0  0  0  0
  1 41  1  0  0  0
  1 42  1  0  0  0
  1 43  1  0  0  0
  1  2  1  0  0  0
  2  7  1  0  0  0
  2  3  2  0  0  0
  3 44  1  0  0  0
  3  4  1  0  0  0
  4  5  2  0  0  0
  4 38  1  0  0  0
  5 35  1  0  0  0
  5  6  1  0  0  0
  6 45  1  0  0  0
  6  7  2  0  0  0
  7  8  1  0  0  0
  8  9  1  0  0  0
  8 46  1  0  0  0
  8 47  1  0  0  0
  9 10  1  0  0  0
  9 13  1  0  0  0
 10 11  1  0  0  0
 10 48  1  0  0  0
 10 49  1  0  0  0
 11 12  3  0  0  0
 12 50  1  0  0  0
 13 18  1  0  0  0
 13 14  2  0  0  0
 14 15  1  0  0  0
 14 51  1  0  0  0
 15 16  2  0  0  0
 15 52  1  0  0  0
 16 17  1  0  0  0
 16 20  1  0  0  0
 17 18  2  0  0  0
 17 19  1  0  0  0
 18 53  1  0  0  0
 20 21  2  0  0  0
 20 22  1  0  0  0
 22 23  1  0  0  0
 22 54  1  0  0  0
 23 24  1  0  0  0
 23 32  1  0  0  0
 23 55  1  0  0  0
 24 25  1  0  0  0
 24 56  1  0  0  0
 24 57  1  0  0  0
 25 26  1  0  0  0
 25 58  1  0  0  0
 25 59  1  0  0  0
 26 27  1  0  0  0
 26 60  1  0  0  0
 26 61  1  0  0  0
 27 28  1  0  0  0
 27 62  1  0  0  0
 27 63  1  0  0  0
 28 29  1  0  0  0
 28 64  1  0  0  0
 28 65  1  0  0  0
 29 30  2  0  0  0
 29 31  1  0  0  0
 31 66  1  0  0  0
 32 33  2  0  0  0
 32 34  1  0  0  0
 34 67  1  0  0  0
 35 40  2  0  0  0
 35 36  1  0  0  0
 36 37  2  0  0  0
 37 38  1  0  0  0
 37 39  1  0  0  0
 38 71  1  0  0  0
 39 68  1  0  0  0
 39 69  1  0  0  0
 39 70  1  0  0  0
M  END
> <s_m_entry_id>
41702

> <s_m_entry_name>
ligand_docking-pose.62

> <s_m_Source_Path>
/home/csk/Desktop/cluster/DUD-E-result/tysy

> <s_m_Source_File>
ligand_docking-pose.sdf

> <i_m_Source_File_Index>
62

> <i_lp_mmshare_version>
53161

> <i_f3d_flags>
0

> <r_lp_tautomer_probability>
0.116051

> <s_lp_Force_Field>
OPLS_2005

> <r_lp_Energy>
23.969592

> <b_lp_Chiralities_Consistent>
1

> <s_lp_Variant>
207495-3

> <s_i_glide_gridfile>
glide-grid_1syn

> <i_i_glide_lignum>
209

> <i_i_glide_rotatable_bonds>
17

> <r_i_docking_score>
-8.53014986563924

> <r_i_glide_ligand_efficiency>
-0.213253746640981

> <r_i_glide_ligand_efficiency_sa>
-0.72931755369274

> <r_i_glide_ligand_efficiency_ln>
-1.81922993523645

> <r_i_glide_gscore>
-8.53014986563924

> <r_i_glide_lipo>
-3.55112956800951

> <r_i_glide_hbond>
0

> <r_i_glide_metal>
0

> <r_i_glide_rewards>
-0.991651344548894

> <r_i_glide_evdw>
-63.7779541015625

> <r_i_glide_ecoul>
-11.7017478942871

> <r_i_glide_erotb>
0.956790936140354

> <r_i_glide_esite>
0

> <r_i_glide_emodel>
-109.042071760631

> <r_i_glide_energy>
-75.4797019958496

> <r_i_glide_einternal>
11.9902963638306

> <i_i_glide_confnum>
56

> <i_i_glide_posenum>
310

> <r_i_glide_eff_state_penalty>
0

> <s_user_duplicate_titles>
207495

> <s_m_subgroup_title>
dock_pv

> <s_m_subgroupid>
dock_pv1

> <b_m_subgroup_collapsed>
0

$$$$
220823
                    3D
 Schrodinger Suite 2021-1.
 49 51  0  0  1  0            999 V2000
   12.7244   18.2928   29.7219 C   0  0  0  0  0  0
   13.8091   17.6937   30.6254 C   0  0  0  0  0  0
   14.0032   18.0626   31.9260 C   0  0  0  0  0  0
   15.0453   17.4477   32.8001 C   0  0  0  0  0  0
   15.3710   17.9005   33.9003 O   0  0  0  0  0  0
   15.6548   16.2188   32.2113 C   0  0  0  0  0  0
   15.4289   15.8792   30.9145 C   0  0  0  0  0  0
   14.5866   16.6097   29.9770 C   0  0  0  0  0  0
   14.5427   16.3044   28.7900 O   0  0  0  0  0  0
   16.4517   15.3222   33.0776 C   0  0  0  0  0  0
   16.0262   15.0281   34.3307 C   0  0  0  0  0  0
   16.5640   14.0657   35.1519 N   0  0  0  0  0  0
   17.7169   13.4030   34.7715 C   0  0  0  0  0  0
   18.2848   12.5185   35.4092 O   0  0  0  0  0  0
   18.1866   13.7580   33.5358 N   0  0  0  0  0  0
   17.6650   14.6258   32.6226 C   0  0  0  0  0  0
   18.1932   14.7631   31.5218 O   0  0  0  0  0  0
   15.7672   13.4725   36.2295 C   0  0  1  0  0  0
   14.4357   14.1116   36.6489 C   0  0  0  0  0  0
   13.8019   12.9717   37.4271 C   0  0  1  0  0  0
   14.2538   11.7261   36.6452 C   0  0  1  0  0  0
   15.4067   12.1551   35.9246 O   0  0  0  0  0  0
   14.6118   10.4725   37.4768 C   0  0  0  0  0  0
   15.1270    9.4352   36.6595 O   0  0  0  0  0  0
   14.1639    8.4442   35.7943 P   0  0  0  0  0  0
   14.5918    8.2260   34.3911 O   0  0  0  0  0  0
   14.1110    7.1024   36.6989 O   0  0  0  0  0  0
   12.6674    9.0428   35.9556 O   0  0  0  0  0  0
   14.1796   13.0119   38.7872 O   0  0  0  0  0  0
   13.2271   19.1955   32.6025 C   0  0  0  0  0  0
   19.0127   13.2633   33.2275 H   0  0  0  0  0  0
   12.2938   17.5576   29.0399 H   0  0  0  0  0  0
   11.8810   18.6899   30.2860 H   0  0  0  0  0  0
   13.1416   19.1036   29.1233 H   0  0  0  0  0  0
   15.8644   14.9641   30.5399 H   0  0  0  0  0  0
   15.1487   15.4974   34.7384 H   0  0  0  0  0  0
   16.4639   13.4445   37.0682 H   0  0  0  0  0  0
   13.8145   14.3163   35.7759 H   0  0  0  0  0  0
   14.5908   15.0280   37.2193 H   0  0  0  0  0  0
   12.7141   13.0550   37.3864 H   0  0  0  0  0  0
   13.4951   11.4769   35.9024 H   0  0  0  0  0  0
   13.7491   10.1238   38.0464 H   0  0  0  0  0  0
   15.3840   10.7219   38.2050 H   0  0  0  0  0  0
   14.0192    6.2722   36.1956 H   0  0  0  0  0  0
   12.0759    8.8379   35.2047 H   0  0  0  0  0  0
   15.1411   13.0288   38.8268 H   0  0  0  0  0  0
   13.8841   19.8318   33.1914 H   0  0  0  0  0  0
   12.7392   19.8636   31.8942 H   0  0  0  0  0  0
   12.4665   18.7928   33.2721 H   0  0  0  0  0  0
  1  2  1  0  0  0
  1 32  1  0  0  0
  1 33  1  0  0  0
  1 34  1  0  0  0
  2  8  1  0  0  0
  2  3  2  0  0  0
  3  4  1  0  0  0
  3 30  1  0  0  0
  4  5  2  0  0  0
  4  6  1  0  0  0
  6  7  2  0  0  0
  6 10  1  0  0  0
  7  8  1  0  0  0
  7 35  1  0  0  0
  8  9  2  0  0  0
 10 16  1  0  0  0
 10 11  2  0  0  0
 11 12  1  0  0  0
 11 36  1  0  0  0
 12 13  1  0  0  0
 12 18  1  0  0  0
 13 14  2  0  0  0
 13 15  1  0  0  0
 15 31  1  0  0  0
 15 16  1  0  0  0
 16 17  2  0  0  0
 18 22  1  0  0  0
 18 19  1  0  0  0
 18 37  1  0  0  0
 19 20  1  0  0  0
 19 38  1  0  0  0
 19 39  1  0  0  0
 20 21  1  0  0  0
 20 29  1  0  0  0
 20 40  1  0  0  0
 21 22  1  0  0  0
 21 23  1  0  0  0
 21 41  1  0  0  0
 23 24  1  0  0  0
 23 42  1  0  0  0
 23 43  1  0  0  0
 24 25  1  0  0  0
 25 26  2  0  0  0
 25 27  1  0  0  0
 25 28  1  0  0  0
 27 44  1  0  0  0
 28 45  1  0  0  0
 29 46  1  0  0  0
 30 47  1  0  0  0
 30 48  1  0  0  0
 30 49  1  0  0  0
M  END
> <s_m_entry_id>
41705

> <s_m_entry_name>
ligand_docking-pose.65

> <s_m_Source_Path>
/home/csk/Desktop/cluster/DUD-E-result/tysy

> <s_m_Source_File>
ligand_docking-pose.sdf

> <i_m_Source_File_Index>
65

> <i_lp_mmshare_version>
53161

> <i_f3d_flags>
0

> <r_lp_tautomer_probability>
1

> <s_lp_Force_Field>
OPLS_2005

> <r_lp_Energy>
23.891896

> <b_lp_Chiralities_Consistent>
1

> <s_lp_Variant>
220823-2

> <s_i_glide_gridfile>
glide-grid_1syn

> <i_i_glide_lignum>
464

> <i_i_glide_rotatable_bonds>
8

> <r_i_docking_score>
-8.50242332141296

> <r_i_glide_ligand_efficiency>
-0.283414110713765

> <r_i_glide_ligand_efficiency_sa>
-0.880633536457414

> <r_i_glide_ligand_efficiency_ln>
-1.9318432199471

> <r_i_glide_gscore>
-8.50242332141296

> <r_i_glide_lipo>
-2.31742036461522

> <r_i_glide_hbond>
-0.500023812674554

> <r_i_glide_metal>
0

> <r_i_glide_rewards>
-2.18286284920277

> <r_i_glide_evdw>
-51.2105293273926

> <r_i_glide_ecoul>
-9.48119449615479

> <r_i_glide_erotb>
0.510686914040874

> <r_i_glide_esite>
-0.0300975681684468

> <r_i_glide_emodel>
-82.6969608914238

> <r_i_glide_energy>
-60.6917238235474

> <r_i_glide_einternal>
10.2235879898071

> <i_i_glide_confnum>
328

> <i_i_glide_posenum>
266

> <r_i_glide_eff_state_penalty>
0

> <s_user_duplicate_titles>
220823

> <s_m_subgroup_title>
dock_pv

> <s_m_subgroupid>
dock_pv1

> <b_m_subgroup_collapsed>
0

$$$$
60865
                    3D
 Schrodinger Suite 2021-1.
 57 59  0  0  1  0            999 V2000
   12.4354   18.6530   29.2482 C   0  0  0  0  0  0
   13.3860   17.8148   30.0725 C   0  0  0  0  0  0
   13.2853   17.9371   31.4434 N   0  0  0  0  0  0
   14.1475   17.2240   32.2791 C   0  0  0  0  0  0
   14.0684   17.3379   33.6606 C   0  0  0  0  0  0
   14.9705   16.6352   34.4586 C   0  0  0  0  0  0
   15.9818   15.8491   33.8909 C   0  0  0  0  0  0
   16.0530   15.7436   32.4930 C   0  0  0  0  0  0
   15.1135   16.4030   31.6863 C   0  0  0  0  0  0
   15.1422   16.2610   30.1684 C   0  0  0  0  0  0
   14.2130   17.0469   29.4713 N   0  0  0  0  0  0
   15.9609   15.5085   29.6446 O   0  0  0  0  0  0
   17.0333   15.2192   34.8197 C   0  0  0  0  0  0
   17.1915   13.7616   34.7344 N   0  0  0  0  0  0
   17.8159   13.2546   33.4974 C   0  0  0  0  0  0
   19.1562   13.8723   33.0360 C   0  0  0  0  0  0
   20.1919   13.8281   33.9917 O   0  0  0  0  0  0
   16.3709   12.9531   35.5040 C   0  0  0  0  0  0
   15.1609   13.2548   36.1304 C   0  0  0  0  0  0
   14.5602   12.2733   36.7715 N   0  0  0  0  0  0
   15.2371   11.1486   36.7269 C   0  0  0  0  0  0
   16.7411   11.2876   35.8497 S   0  0  0  0  0  0
   14.9240    9.8702   37.3080 C   0  0  0  0  0  0
   15.7911    9.0280   37.5364 O   0  0  0  0  0  0
   13.6207    9.6550   37.5578 N   0  0  0  0  0  0
   13.0927    8.3963   38.1001 C   0  0  2  0  0  0
   12.8864    7.3852   36.9265 C   0  0  0  0  0  0
   12.5342    5.9210   37.2828 C   0  0  0  0  0  0
   13.5557    5.2778   38.2209 C   0  0  0  0  0  0
   13.6025    5.5346   39.4225 O   0  0  0  0  0  0
   14.4141    4.4238   37.5912 O   0  0  0  0  0  0
   11.8413    8.6450   38.9682 C   0  0  0  0  0  0
   11.1737    9.6593   38.9316 O   0  0  0  0  0  0
   11.6409    7.5872   39.8084 O   0  0  0  0  0  0
   13.8589    8.0183   38.7792 H   0  0  0  0  0  0
   12.6606   18.5966   28.1825 H   0  0  0  0  0  0
   11.4045   18.3271   29.3890 H   0  0  0  0  0  0
   12.4930   19.7031   29.5346 H   0  0  0  0  0  0
   13.3257   17.9764   34.1154 H   0  0  0  0  0  0
   14.8979   16.7297   35.5315 H   0  0  0  0  0  0
   16.8398   15.1704   32.0266 H   0  0  0  0  0  0
   12.6137   18.5719   31.8431 H   0  0  0  0  0  0
   16.7533   15.4280   35.8532 H   0  0  0  0  0  0
   17.9917   15.7254   34.7114 H   0  0  0  0  0  0
   18.0793   12.2086   33.6447 H   0  0  0  0  0  0
   17.1202   13.1220   32.6694 H   0  0  0  0  0  0
   19.3757   13.8278   31.9700 H   0  0  0  0  0  0
   18.9859   14.9461   33.0536 H   0  0  0  0  0  0
   20.7671   13.0861   33.7338 H   0  0  0  0  0  0
   14.6763   14.2186   36.1020 H   0  0  0  0  0  0
   12.9444   10.3886   37.4030 H   0  0  0  0  0  0
   13.7909    7.3582   36.3156 H   0  0  0  0  0  0
   12.1180    7.7700   36.2530 H   0  0  0  0  0  0
   12.4466    5.3300   36.3699 H   0  0  0  0  0  0
   11.5527    5.8736   37.7546 H   0  0  0  0  0  0
   14.1921    4.2303   36.6661 H   0  0  0  0  0  0
   12.3007    6.8907   39.7052 H   0  0  0  0  0  0
  1 36  1  0  0  0
  1 37  1  0  0  0
  1 38  1  0  0  0
  1  2  1  0  0  0
  2  3  1  0  0  0
  2 11  2  0  0  0
  3  4  1  0  0  0
  3 42  1  0  0  0
  4  9  2  0  0  0
  4  5  1  0  0  0
  5  6  2  0  0  0
  5 39  1  0  0  0
  6  7  1  0  0  0
  6 40  1  0  0  0
  7  8  2  0  0  0
  7 13  1  0  0  0
  8  9  1  0  0  0
  8 41  1  0  0  0
  9 10  1  0  0  0
 10 12  2  0  0  0
 10 11  1  0  0  0
 13 14  1  0  0  0
 13 43  1  0  0  0
 13 44  1  0  0  0
 14 15  1  0  0  0
 14 18  1  0  0  0
 15 16  1  0  0  0
 15 45  1  0  0  0
 15 46  1  0  0  0
 16 17  1  0  0  0
 16 47  1  0  0  0
 16 48  1  0  0  0
 17 49  1  0  0  0
 18 22  1  0  0  0
 18 19  2  0  0  0
 19 20  1  0  0  0
 19 50  1  0  0  0
 20 21  2  0  0  0
 21 22  1  0  0  0
 21 23  1  0  0  0
 23 24  2  0  0  0
 23 25  1  0  0  0
 25 26  1  0  0  0
 25 51  1  0  0  0
 26 35  1  0  0  0
 26 27  1  0  0  0
 26 32  1  0  0  0
 27 28  1  0  0  0
 27 52  1  0  0  0
 27 53  1  0  0  0
 28 29  1  0  0  0
 28 54  1  0  0  0
 28 55  1  0  0  0
 29 30  2  0  0  0
 29 31  1  0  0  0
 31 56  1  0  0  0
 32 33  2  0  0  0
 32 34  1  0  0  0
 34 57  1  0  0  0
M  END
> <s_m_entry_id>
41708

> <s_m_entry_name>
ligand_docking-pose.68

> <s_m_Source_Path>
/home/csk/Desktop/cluster/DUD-E-result/tysy

> <s_m_Source_File>
ligand_docking-pose.sdf

> <i_m_Source_File_Index>
68

> <i_lp_mmshare_version>
53161

> <i_f3d_flags>
0

> <r_lp_tautomer_probability>
0.116051

> <s_lp_Force_Field>
OPLS_2005

> <r_lp_Energy>
16.007629

> <b_lp_Chiralities_Consistent>
1

> <s_lp_Variant>
60865-2

> <s_i_glide_gridfile>
glide-grid_1syn

> <i_i_glide_lignum>
677

> <i_i_glide_rotatable_bonds>
15

> <r_i_docking_score>
-8.4567639620545

> <r_i_glide_ligand_efficiency>
-0.248728351825132

> <r_i_glide_ligand_efficiency_sa>
-0.805783302937836

> <r_i_glide_ligand_efficiency_ln>
-1.86833636341233

> <r_i_glide_gscore>
-8.4567639620545

> <r_i_glide_lipo>
-3.14624961511711

> <r_i_glide_hbond>
-0.424271122981703

> <r_i_glide_metal>
0

> <r_i_glide_rewards>
-0.74534404181712

> <r_i_glide_evdw>
-49.5319061279297

> <r_i_glide_ecoul>
-17.7605781555176

> <r_i_glide_erotb>
1.0188413676133

> <r_i_glide_esite>
-0.0190585200277495

> <r_i_glide_emodel>
-100.526377426043

> <r_i_glide_energy>
-67.2924842834473

> <r_i_glide_einternal>
8.8500452041626

> <i_i_glide_confnum>
93

> <i_i_glide_posenum>
340

> <r_i_glide_eff_state_penalty>
0

> <s_user_duplicate_titles>
60865

> <s_m_subgroup_title>
dock_pv

> <s_m_subgroupid>
dock_pv1

> <b_m_subgroup_collapsed>
0

$$$$
207350
                    3D
 Schrodinger Suite 2021-1.
 70 73  0  0  1  0            999 V2000
   13.6830   10.5910   40.8602 C   0  0  0  0  0  0
   13.7123    9.5594   39.7425 C   0  0  0  0  0  0
   14.4921    8.4110   39.9136 C   0  0  0  0  0  0
   14.4918    7.4054   38.9580 C   0  0  0  0  0  0
   13.7678    7.5824   37.7796 C   0  0  0  0  0  0
   13.0119    8.7310   37.5665 C   0  0  0  0  0  0
   12.9603    9.7153   38.5585 C   0  0  0  0  0  0
   12.0357   10.9007   38.3054 C   0  0  0  0  0  0
   12.6125   12.2477   38.4696 N   0  0  0  0  0  0
   11.7145   13.2282   39.1105 C   0  0  0  0  0  0
   10.4148   13.4228   38.4311 C   0  0  0  0  0  0
    9.3444   13.5585   37.8585 C   0  0  0  0  0  0
   13.5814   12.6988   37.5248 C   0  0  0  0  0  0
   13.5004   13.9768   36.9610 C   0  0  0  0  0  0
   14.4726   14.4565   36.0908 C   0  0  0  0  0  0
   15.5696   13.6661   35.7261 C   0  0  0  0  0  0
   15.6586   12.3725   36.2729 C   0  0  0  0  0  0
   14.6792   11.9091   37.1518 C   0  0  0  0  0  0
   16.6919   11.5435   35.9843 F   0  0  0  0  0  0
   16.5915   14.2444   34.7729 C   0  0  0  0  0  0
   16.5367   15.4290   34.4527 O   0  0  0  0  0  0
   17.4883   13.4056   34.2198 N   0  0  0  0  0  0
   18.5793   13.7414   33.2791 C   0  0  1  0  0  0
   18.1633   14.5010   31.9773 C   0  0  0  0  0  0
   16.8312   14.0918   31.3248 C   0  0  0  0  0  0
   16.4596   14.9175   30.0785 C   0  0  0  0  0  0
   14.7111   15.3982   29.8617 S   0  0  0  0  0  0
   14.4614   16.6900   31.1045 C   0  0  0  0  0  0
   15.3046   16.8420   32.1321 N   0  0  0  0  0  0
   14.8544   17.8286   32.9138 C   0  0  0  0  0  0
   13.7700   18.2246   32.2368 N   0  0  0  0  0  0
   13.5027   17.4969   31.1518 N   0  0  0  0  0  0
   15.3264   18.2644   33.9603 O   0  0  0  0  0  0
   19.6634   14.5712   33.9941 C   0  0  0  0  0  0
   19.4008   15.4472   34.7884 O   0  0  0  0  0  0
   20.9194   14.2279   33.5883 O   0  0  0  0  0  0
   13.8507    6.5042   36.7354 C   0  0  0  0  0  0
   14.5482    5.4275   37.1645 N   0  0  0  0  0  0
   15.1982    5.2818   38.3561 C   0  0  0  0  0  0
   15.2245    6.2335   39.2148 N   0  0  0  0  0  0
   15.9619    4.0028   38.5953 C   0  0  0  0  0  0
   13.3911    6.5659   35.6000 O   0  0  0  0  0  0
   18.9915   12.7729   32.9947 H   0  0  0  0  0  0
   13.1383   18.9701   32.4937 H   0  0  0  0  0  0
   12.6515   10.8354   41.1175 H   0  0  0  0  0  0
   14.1733   10.2382   41.7680 H   0  0  0  0  0  0
   14.1769   11.5083   40.5393 H   0  0  0  0  0  0
   15.0896    8.2701   40.7908 H   0  0  0  0  0  0
   12.4503    8.8481   36.6475 H   0  0  0  0  0  0
   11.6309   10.8420   37.2925 H   0  0  0  0  0  0
   11.1723   10.7726   38.9603 H   0  0  0  0  0  0
   11.4893   12.8712   40.1154 H   0  0  0  0  0  0
   12.2002   14.1947   39.2672 H   0  0  0  0  0  0
    8.4160   13.6957   37.3510 H   0  0  0  0  0  0
   12.6701   14.6280   37.1753 H   0  0  0  0  0  0
   14.3553   15.4578   35.6975 H   0  0  0  0  0  0
   14.8352   10.9314   37.5695 H   0  0  0  0  0  0
   17.4812   12.4490   34.5450 H   0  0  0  0  0  0
   18.0973   15.5711   32.1863 H   0  0  0  0  0  0
   18.9621   14.3918   31.2398 H   0  0  0  0  0  0
   16.8648   13.0317   31.0733 H   0  0  0  0  0  0
   16.0407   14.2276   32.0494 H   0  0  0  0  0  0
   17.0391   15.8328   30.0457 H   0  0  0  0  0  0
   16.7493   14.3615   29.1899 H   0  0  0  0  0  0
   16.1117   16.2813   32.3586 H   0  0  0  0  0  0
   20.9924   13.3413   33.1878 H   0  0  0  0  0  0
   16.9497    4.0544   38.1308 H   0  0  0  0  0  0
   16.0953    3.8156   39.6632 H   0  0  0  0  0  0
   15.4321    3.1492   38.1695 H   0  0  0  0  0  0
   14.5357    4.6652   36.4984 H   0  0  0  0  0  0
  1 45  1  0  0  0
  1 46  1  0  0  0
  1 47  1  0  0  0
  1  2  1  0  0  0
  2  7  1  0  0  0
  2  3  2  0  0  0
  3 48  1  0  0  0
  3  4  1  0  0  0
  4  5  2  0  0  0
  4 40  1  0  0  0
  5 37  1  0  0  0
  5  6  1  0  0  0
  6 49  1  0  0  0
  6  7  2  0  0  0
  7  8  1  0  0  0
  8  9  1  0  0  0
  8 50  1  0  0  0
  8 51  1  0  0  0
  9 10  1  0  0  0
  9 13  1  0  0  0
 10 11  1  0  0  0
 10 52  1  0  0  0
 10 53  1  0  0  0
 11 12  3  0  0  0
 12 54  1  0  0  0
 13 18  1  0  0  0
 13 14  2  0  0  0
 14 15  1  0  0  0
 14 55  1  0  0  0
 15 16  2  0  0  0
 15 56  1  0  0  0
 16 17  1  0  0  0
 16 20  1  0  0  0
 17 18  2  0  0  0
 17 19  1  0  0  0
 18 57  1  0  0  0
 20 21  2  0  0  0
 20 22  1  0  0  0
 22 23  1  0  0  0
 22 58  1  0  0  0
 23 43  1  0  0  0
 23 24  1  0  0  0
 23 34  1  0  0  0
 24 25  1  0  0  0
 24 59  1  0  0  0
 24 60  1  0  0  0
 25 26  1  0  0  0
 25 61  1  0  0  0
 25 62  1  0  0  0
 26 27  1  0  0  0
 26 63  1  0  0  0
 26 64  1  0  0  0
 27 28  1  0  0  0
 28 32  2  0  0  0
 28 29  1  0  0  0
 29 30  1  0  0  0
 29 65  1  0  0  0
 30 31  1  0  0  0
 30 33  2  0  0  0
 31 32  1  0  0  0
 31 44  1  0  0  0
 34 35  2  0  0  0
 34 36  1  0  0  0
 36 66  1  0  0  0
 37 42  2  0  0  0
 37 38  1  0  0  0
 38 39  1  0  0  0
 38 70  1  0  0  0
 39 40  2  0  0  0
 39 41  1  0  0  0
 41 67  1  0  0  0
 41 68  1  0  0  0
 41 69  1  0  0  0
M  END
> <s_m_entry_id>
41709

> <s_m_entry_name>
ligand_docking-pose.69

> <s_m_Source_Path>
/home/csk/Desktop/cluster/DUD-E-result/tysy

> <s_m_Source_File>
ligand_docking-pose.sdf

> <i_m_Source_File_Index>
69

> <i_lp_mmshare_version>
53161

> <i_f3d_flags>
0

> <r_lp_tautomer_probability>
0.883847160210435

> <s_lp_Force_Field>
OPLS_2005

> <r_lp_Energy>
39.975256

> <b_lp_Chiralities_Consistent>
1

> <s_lp_Variant>
207350-1

> <s_i_glide_gridfile>
glide-grid_1syn

> <i_i_glide_lignum>
283

> <i_i_glide_rotatable_bonds>
15

> <r_i_docking_score>
-8.45282977663935

> <r_i_glide_ligand_efficiency>
-0.201257851824746

> <r_i_glide_ligand_efficiency_sa>
-0.699577654563831

> <r_i_glide_ligand_efficiency_ln>
-1.78417459588542

> <r_i_glide_gscore>
-8.45282977663935

> <r_i_glide_lipo>
-2.39352489863871

> <r_i_glide_hbond>
-0.559257449311725

> <r_i_glide_metal>
0

> <r_i_glide_rewards>
-1.26062723318585

> <r_i_glide_evdw>
-62.4763221740723

> <r_i_glide_ecoul>
-11.1268682479858

> <r_i_glide_erotb>
0.662087820091971

> <r_i_glide_esite>
-0.108661669693546

> <r_i_glide_emodel>
-101.205409457814

> <r_i_glide_energy>
-73.6031904220581

> <r_i_glide_einternal>
19.6420669555664

> <i_i_glide_confnum>
43

> <i_i_glide_posenum>
393

> <r_i_glide_eff_state_penalty>
0

> <s_user_duplicate_titles>
207350

> <s_m_subgroup_title>
dock_pv

> <s_m_subgroupid>
dock_pv1

> <b_m_subgroup_collapsed>
0

$$$$
235229
                    3D
 Schrodinger Suite 2021-1.
 37 38  0  0  1  0            999 V2000
   14.9471   15.9363   31.7283 C   0  0  0  0  0  0
   14.2358   16.2338   30.6248 C   0  0  0  0  0  0
   13.5355   17.5178   30.5778 C   0  0  0  0  0  0
   12.9212   17.9563   29.6083 O   0  0  0  0  0  0
   13.6327   18.2212   31.7433 N   0  0  0  0  0  0
   14.2841   17.9005   32.9049 C   0  0  0  0  0  0
   14.2346   18.6280   33.8901 O   0  0  0  0  0  0
   14.9676   16.7071   32.8585 N   0  0  0  0  0  0
   15.5666   16.2283   34.0924 C   0  0  1  0  0  0
   14.6326   15.7583   35.2116 C   0  0  0  0  0  0
   15.4362   14.6448   35.8944 C   0  0  2  0  0  0
   16.7665   14.5685   35.1271 C   0  0  2  0  0  0
   16.4437   15.1795   33.8909 O   0  0  0  0  0  0
   17.3696   13.1914   34.7579 C   0  0  0  0  0  0
   18.2389   13.2733   33.6279 O   0  0  0  0  0  0
   19.5233   14.2799   33.6020 P   0  0  0  0  0  0
   19.3059   15.6493   34.1355 O   0  0  0  0  0  0
   20.6425   13.4280   34.3910 O   0  0  0  0  0  0
   20.0305   14.2280   32.0628 O   0  0  0  0  0  0
   14.6926   13.4427   35.9910 O   0  0  0  0  0  0
   14.1136   15.2792   29.4548 C   0  0  0  0  0  0
   12.8642   14.6280   29.5910 O   0  0  0  0  0  0
   13.1487   19.1062   31.7505 H   0  0  0  0  0  0
   15.5124   15.0280   31.8185 H   0  0  0  0  0  0
   16.1892   17.0729   34.3910 H   0  0  0  0  0  0
   13.6948   15.3953   34.7910 H   0  0  0  0  0  0
   14.4140   16.5950   35.8749 H   0  0  0  0  0  0
   15.6577   14.9571   36.9121 H   0  0  0  0  0  0
   17.5151   15.1709   35.6411 H   0  0  0  0  0  0
   16.5920   12.4804   34.4896 H   0  0  0  0  0  0
   17.9005   12.7657   35.6104 H   0  0  0  0  0  0
   20.9920   12.6628   33.8490 H   0  0  0  0  0  0
   20.1917   13.3108   31.7069 H   0  0  0  0  0  0
   15.2347   12.7762   36.4192 H   0  0  0  0  0  0
   14.1920   15.8028   28.5001 H   0  0  0  0  0  0
   14.9100   14.5333   29.4785 H   0  0  0  0  0  0
   12.9920   13.6654   29.5910 H   0  0  0  0  0  0
  1  8  1  0  0  0
  1  2  2  0  0  0
  1 24  1  0  0  0
  2  3  1  0  0  0
  2 21  1  0  0  0
  3  4  2  0  0  0
  3  5  1  0  0  0
  5 23  1  0  0  0
  5  6  1  0  0  0
  6  7  2  0  0  0
  6  8  1  0  0  0
  8  9  1  0  0  0
  9 13  1  0  0  0
  9 10  1  0  0  0
  9 25  1  0  0  0
 10 11  1  0  0  0
 10 26  1  0  0  0
 10 27  1  0  0  0
 11 12  1  0  0  0
 11 20  1  0  0  0
 11 28  1  0  0  0
 12 13  1  0  0  0
 12 14  1  0  0  0
 12 29  1  0  0  0
 14 15  1  0  0  0
 14 30  1  0  0  0
 14 31  1  0  0  0
 15 16  1  0  0  0
 16 17  2  0  0  0
 16 18  1  0  0  0
 16 19  1  0  0  0
 18 32  1  0  0  0
 19 33  1  0  0  0
 20 34  1  0  0  0
 21 22  1  0  0  0
 21 35  1  0  0  0
 21 36  1  0  0  0
 22 37  1  0  0  0
M  END
> <s_m_entry_id>
41712

> <s_m_entry_name>
ligand_docking-pose.72

> <s_m_Source_Path>
/home/csk/Desktop/cluster/DUD-E-result/tysy

> <s_m_Source_File>
ligand_docking-pose.sdf

> <i_m_Source_File_Index>
72

> <i_lp_mmshare_version>
53161

> <i_f3d_flags>
0

> <r_lp_tautomer_probability>
0.999537046341301

> <s_lp_Force_Field>
OPLS_2005

> <r_lp_Energy>
16.475489

> <b_lp_Chiralities_Consistent>
1

> <s_lp_Variant>
235229-8

> <s_i_glide_gridfile>
glide-grid_1syn

> <i_i_glide_lignum>
137

> <i_i_glide_rotatable_bonds>
9

> <r_i_docking_score>
-8.44439278443575

> <r_i_glide_ligand_efficiency>
-0.38383603565617

> <r_i_glide_ligand_efficiency_sa>
-1.07552366732327

> <r_i_glide_ligand_efficiency_ln>
-2.06411761322687

> <r_i_glide_gscore>
-8.44439278443575

> <r_i_glide_lipo>
-1.86273438605269

> <r_i_glide_hbond>
-0.0295104175769831

> <r_i_glide_metal>
0

> <r_i_glide_rewards>
-2.34632470969431

> <r_i_glide_evdw>
-29.9119682312012

> <r_i_glide_ecoul>
-23.071590423584

> <r_i_glide_erotb>
0.826555897913258

> <r_i_glide_esite>
-0.0760421939273698

> <r_i_glide_emodel>
-81.9243861414285

> <r_i_glide_energy>
-52.9835586547852

> <r_i_glide_einternal>
7.14900350570679

> <i_i_glide_confnum>
64

> <i_i_glide_posenum>
2

> <r_i_glide_eff_state_penalty>
0

> <s_user_duplicate_titles>
235229

> <s_m_subgroup_title>
dock_pv

> <s_m_subgroupid>
dock_pv1

> <b_m_subgroup_collapsed>
0

$$$$
258816
                    3D
 Schrodinger Suite 2021-1.
 54 56  0  0  1  0            999 V2000
   12.5275   19.4309   28.1570 C   0  0  0  0  0  0
   13.1785   18.5441   29.1843 C   0  0  0  0  0  0
   12.9919   18.9071   30.4993 N   0  0  0  0  0  0
   13.6152   18.1914   31.5181 C   0  0  0  0  0  0
   13.4796   18.5739   32.8437 C   0  0  0  0  0  0
   14.0986   17.8263   33.8419 C   0  0  0  0  0  0
   14.8454   16.6888   33.5175 C   0  0  0  0  0  0
   14.9951   16.3116   32.1760 C   0  0  0  0  0  0
   14.3849   17.0741   31.1700 C   0  0  0  0  0  0
   14.5391   16.7051   29.6994 C   0  0  0  0  0  0
   13.8735   17.5451   28.7948 N   0  0  0  0  0  0
   15.2221   15.7325   29.3845 O   0  0  0  0  0  0
   15.3970   15.8350   34.6521 C   0  0  0  0  0  0
   16.6965   15.1789   34.4052 N   0  0  0  0  0  0
   17.7971   16.0503   33.9832 C   0  0  0  0  0  0
   16.9207   13.8828   34.8380 C   0  0  0  0  0  0
   16.0676   13.0946   35.6073 C   0  0  0  0  0  0
   16.4574   11.7498   35.7304 C   0  0  0  0  0  0
   17.7322   11.5623   35.1937 C   0  0  0  0  0  0
   18.3408   12.9764   34.3907 S   0  0  0  0  0  0
   15.6806   10.7279   36.3958 C   0  0  0  0  0  0
   16.1943    9.7272   36.8920 O   0  0  0  0  0  0
   14.3543   10.9500   36.4019 N   0  0  0  0  0  0
   13.3430   10.0275   36.9308 C   0  0  1  0  0  0
   12.1967   10.8379   37.6069 C   0  0  0  0  0  0
   12.6856   11.8082   38.7129 C   0  0  0  0  0  0
   11.5579   12.3866   39.5722 C   0  0  0  0  0  0
   11.4766   12.2286   40.7899 O   0  0  0  0  0  0
   10.6676   13.1207   38.8468 O   0  0  0  0  0  0
   12.9314    9.0244   35.8198 C   0  0  0  0  0  0
   13.7233    8.3238   35.2206 O   0  0  0  0  0  0
   11.5900    9.0280   35.5909 O   0  0  0  0  0  0
   13.7982    9.4140   37.7107 H   0  0  0  0  0  0
   12.5941   19.0280   27.1479 H   0  0  0  0  0  0
   11.4734   19.5562   28.3951 H   0  0  0  0  0  0
   12.9911   20.4137   28.1455 H   0  0  0  0  0  0
   12.8992   19.4448   33.1152 H   0  0  0  0  0  0
   13.9732   18.1259   34.8717 H   0  0  0  0  0  0
   15.5698   15.4282   31.9251 H   0  0  0  0  0  0
   12.4276   19.7088   30.7281 H   0  0  0  0  0  0
   14.6244   15.0828   34.8064 H   0  0  0  0  0  0
   15.4172   16.3936   35.5889 H   0  0  0  0  0  0
   18.5083   16.2277   34.7925 H   0  0  0  0  0  0
   18.2867   15.6508   33.0941 H   0  0  0  0  0  0
   17.4302   17.0276   33.6694 H   0  0  0  0  0  0
   15.1431   13.4649   36.0221 H   0  0  0  0  0  0
   18.3185   10.6544   35.1823 H   0  0  0  0  0  0
   14.0006   11.7656   35.9277 H   0  0  0  0  0  0
   11.4680   10.1477   38.0379 H   0  0  0  0  0  0
   11.6623   11.4080   36.8437 H   0  0  0  0  0  0
   13.2574   12.6321   38.2818 H   0  0  0  0  0  0
   13.3712   11.2827   39.3791 H   0  0  0  0  0  0
   10.8763   13.1529   37.9111 H   0  0  0  0  0  0
   11.3914    8.3861   34.8944 H   0  0  0  0  0  0
  1 34  1  0  0  0
  1 35  1  0  0  0
  1 36  1  0  0  0
  1  2  1  0  0  0
  2  3  1  0  0  0
  2 11  2  0  0  0
  3  4  1  0  0  0
  3 40  1  0  0  0
  4  9  2  0  0  0
  4  5  1  0  0  0
  5  6  2  0  0  0
  5 37  1  0  0  0
  6  7  1  0  0  0
  6 38  1  0  0  0
  7  8  2  0  0  0
  7 13  1  0  0  0
  8  9  1  0  0  0
  8 39  1  0  0  0
  9 10  1  0  0  0
 10 12  2  0  0  0
 10 11  1  0  0  0
 13 14  1  0  0  0
 13 41  1  0  0  0
 13 42  1  0  0  0
 14 15  1  0  0  0
 14 16  1  0  0  0
 15 43  1  0  0  0
 15 44  1  0  0  0
 15 45  1  0  0  0
 16 20  1  0  0  0
 16 17  2  0  0  0
 17 18  1  0  0  0
 17 46  1  0  0  0
 18 19  2  0  0  0
 18 21  1  0  0  0
 19 20  1  0  0  0
 19 47  1  0  0  0
 21 22  2  0  0  0
 21 23  1  0  0  0
 23 24  1  0  0  0
 23 48  1  0  0  0
 24 33  1  0  0  0
 24 25  1  0  0  0
 24 30  1  0  0  0
 25 26  1  0  0  0
 25 49  1  0  0  0
 25 50  1  0  0  0
 26 27  1  0  0  0
 26 51  1  0  0  0
 26 52  1  0  0  0
 27 28  2  0  0  0
 27 29  1  0  0  0
 29 53  1  0  0  0
 30 31  2  0  0  0
 30 32  1  0  0  0
 32 54  1  0  0  0
M  END
> <s_m_entry_id>
41719

> <s_m_entry_name>
ligand_docking-pose.79

> <s_m_Source_Path>
/home/csk/Desktop/cluster/DUD-E-result/tysy

> <s_m_Source_File>
ligand_docking-pose.sdf

> <i_m_Source_File_Index>
79

> <i_lp_mmshare_version>
53161

> <i_f3d_flags>
0

> <r_lp_tautomer_probability>
0.116051

> <s_lp_Force_Field>
OPLS_2005

> <r_lp_Energy>
6.366813

> <b_lp_Chiralities_Consistent>
1

> <s_lp_Variant>
258816-2

> <s_i_glide_gridfile>
glide-grid_1syn

> <i_i_glide_lignum>
505

> <i_i_glide_rotatable_bonds>
12

> <r_i_docking_score>
-8.40960044341869

> <r_i_glide_ligand_efficiency>
-0.262800013856834

> <r_i_glide_ligand_efficiency_sa>
-0.834338035943327

> <r_i_glide_ligand_efficiency_ln>
-1.88313877633167

> <r_i_glide_gscore>
-8.40960044341869

> <r_i_glide_lipo>
-3.05038044589768

> <r_i_glide_hbond>
-0.2702418876546

> <r_i_glide_metal>
0

> <r_i_glide_rewards>
-1.3638405532978

> <r_i_glide_evdw>
-55.2501449584961

> <r_i_glide_ecoul>
-12.6717329025269

> <r_i_glide_erotb>
0.95680462189108

> <r_i_glide_esite>
-0.018674995155854

> <r_i_glide_emodel>
-99.4925290846821

> <r_i_glide_energy>
-67.9218778610229

> <r_i_glide_einternal>
6.43754768371582

> <i_i_glide_confnum>
5

> <i_i_glide_posenum>
331

> <r_i_glide_eff_state_penalty>
0

> <s_user_duplicate_titles>
258816

> <s_m_subgroup_title>
dock_pv

> <s_m_subgroupid>
dock_pv1

> <b_m_subgroup_collapsed>
0

$$$$
60942
                    3D
 Schrodinger Suite 2021-1.
 54 56  0  0  1  0            999 V2000
   12.3054   18.7311   30.1540 C   0  0  0  0  0  0
   13.4047   17.9051   30.7800 C   0  0  0  0  0  0
   13.9543   16.9488   30.1233 N   0  0  0  0  0  0
   14.9918   16.2087   30.7165 C   0  0  0  0  0  0
   15.5756   15.1755   29.9887 C   0  0  0  0  0  0
   16.5919   14.4057   30.5640 C   0  0  0  0  0  0
   17.0413   14.6616   31.8680 C   0  0  0  0  0  0
   16.4822   15.7390   32.5758 C   0  0  0  0  0  0
   15.4521   16.4889   32.0056 C   0  0  0  0  0  0
   14.8073   17.6283   32.7577 C   0  0  0  0  0  0
   13.8222   18.2279   32.0429 N   0  0  0  0  0  0
   15.1175   18.0245   33.8770 O   0  0  0  0  0  0
   18.1045   13.7240   32.4683 C   0  0  0  0  0  0
   18.4001   13.9116   33.8978 N   0  0  0  0  0  0
   19.3870   14.9568   34.1706 C   0  0  0  0  0  0
   17.4824   13.5362   34.8583 C   0  0  0  0  0  0
   16.7323   14.3610   35.6823 C   0  0  0  0  0  0
   15.7915   13.6848   36.4546 C   0  0  0  0  0  0
   15.8431   12.3054   36.2996 C   0  0  0  0  0  0
   17.1378   11.8661   35.1957 S   0  0  0  0  0  0
   14.9711   11.3576   36.9548 C   0  0  0  0  0  0
   14.1909   11.7191   37.8384 O   0  0  0  0  0  0
   15.0461   10.0957   36.5082 N   0  0  0  0  0  0
   14.1503    9.0038   36.8904 C   0  0  2  0  0  0
   14.9616    7.8731   37.5767 C   0  0  0  0  0  0
   14.1266    6.6286   37.9769 C   0  0  0  0  0  0
   14.9930    5.5095   38.5575 C   0  0  0  0  0  0
   15.6481    5.6327   39.5906 O   0  0  0  0  0  0
   14.9961    4.3750   37.7986 O   0  0  0  0  0  0
   13.4789    8.5384   35.5928 C   0  0  0  0  0  0
   14.0387    7.8302   34.7906 O   0  0  0  0  0  0
   12.1982    8.9943   35.5010 O   0  0  0  0  0  0
   13.3835    9.3518   37.5880 H   0  0  0  0  0  0
   11.5519   18.0924   29.6888 H   0  0  0  0  0  0
   11.7915   19.3553   30.8856 H   0  0  0  0  0  0
   12.7084   19.3862   29.3805 H   0  0  0  0  0  0
   15.2289   14.9571   28.9903 H   0  0  0  0  0  0
   17.0069   13.5824   29.9985 H   0  0  0  0  0  0
   16.8250   15.9882   33.5670 H   0  0  0  0  0  0
   13.3925   19.0069   32.5179 H   0  0  0  0  0  0
   19.0212   13.8293   31.8871 H   0  0  0  0  0  0
   17.7906   12.6929   32.3096 H   0  0  0  0  0  0
   20.0262   14.6941   35.0145 H   0  0  0  0  0  0
   20.0794   15.0274   33.3301 H   0  0  0  0  0  0
   18.9441   15.9480   34.2624 H   0  0  0  0  0  0
   16.8215   15.4280   35.6953 H   0  0  0  0  0  0
   15.0969   14.1913   37.1112 H   0  0  0  0  0  0
   15.6900    9.8955   35.7574 H   0  0  0  0  0  0
   15.4316    8.2762   38.4740 H   0  0  0  0  0  0
   15.7851    7.5730   36.9229 H   0  0  0  0  0  0
   13.5660    6.2381   37.1271 H   0  0  0  0  0  0
   13.3877    6.9076   38.7292 H   0  0  0  0  0  0
   14.4502    4.3966   37.0047 H   0  0  0  0  0  0
   11.7657    8.5790   34.7443 H   0  0  0  0  0  0
  1 34  1  0  0  0
  1 35  1  0  0  0
  1 36  1  0  0  0
  1  2  1  0  0  0
  2  3  2  0  0  0
  2 11  1  0  0  0
  3  4  1  0  0  0
  4  9  2  0  0  0
  4  5  1  0  0  0
  5  6  2  0  0  0
  5 37  1  0  0  0
  6  7  1  0  0  0
  6 38  1  0  0  0
  7  8  2  0  0  0
  7 13  1  0  0  0
  8  9  1  0  0  0
  8 39  1  0  0  0
  9 10  1  0  0  0
 10 12  2  0  0  0
 10 11  1  0  0  0
 11 40  1  0  0  0
 13 14  1  0  0  0
 13 41  1  0  0  0
 13 42  1  0  0  0
 14 15  1  0  0  0
 14 16  1  0  0  0
 15 43  1  0  0  0
 15 44  1  0  0  0
 15 45  1  0  0  0
 16 20  1  0  0  0
 16 17  2  0  0  0
 17 18  1  0  0  0
 17 46  1  0  0  0
 18 19  2  0  0  0
 18 47  1  0  0  0
 19 20  1  0  0  0
 19 21  1  0  0  0
 21 22  2  0  0  0
 21 23  1  0  0  0
 23 24  1  0  0  0
 23 48  1  0  0  0
 24 33  1  0  0  0
 24 25  1  0  0  0
 24 30  1  0  0  0
 25 26  1  0  0  0
 25 49  1  0  0  0
 25 50  1  0  0  0
 26 27  1  0  0  0
 26 51  1  0  0  0
 26 52  1  0  0  0
 27 28  2  0  0  0
 27 29  1  0  0  0
 29 53  1  0  0  0
 30 31  2  0  0  0
 30 32  1  0  0  0
 32 54  1  0  0  0
M  END
> <s_m_entry_id>
41721

> <s_m_entry_name>
ligand_docking-pose.81

> <s_m_Source_Path>
/home/csk/Desktop/cluster/DUD-E-result/tysy

> <s_m_Source_File>
ligand_docking-pose.sdf

> <i_m_Source_File_Index>
81

> <i_lp_mmshare_version>
53161

> <i_f3d_flags>
0

> <r_lp_tautomer_probability>
0.883938

> <s_lp_Force_Field>
OPLS_2005

> <r_lp_Energy>
11.472298

> <b_lp_Chiralities_Consistent>
1

> <s_lp_Variant>
60942-1

> <s_i_glide_gridfile>
glide-grid_1syn

> <i_i_glide_lignum>
506

> <i_i_glide_rotatable_bonds>
12

> <r_i_docking_score>
-8.39191532044632

> <r_i_glide_ligand_efficiency>
-0.262247353763948

> <r_i_glide_ligand_efficiency_sa>
-0.832583449519696

> <r_i_glide_ligand_efficiency_ln>
-1.87917859521991

> <r_i_glide_gscore>
-8.39191532044632

> <r_i_glide_lipo>
-3.22891577455193

> <r_i_glide_hbond>
-0.291024962890936

> <r_i_glide_metal>
0

> <r_i_glide_rewards>
-0.983705574809481

> <r_i_glide_evdw>
-56.6398887634277

> <r_i_glide_ecoul>
-13.2860174179077

> <r_i_glide_erotb>
0.95680462189108

> <r_i_glide_esite>
-0.0201765792275096

> <r_i_glide_emodel>
-99.5910605874097

> <r_i_glide_energy>
-69.9259061813354

> <r_i_glide_einternal>
14.7804670333862

> <i_i_glide_confnum>
210

> <i_i_glide_posenum>
244

> <r_i_glide_eff_state_penalty>
0

> <s_user_duplicate_titles>
60942

> <s_m_subgroup_title>
dock_pv

> <s_m_subgroupid>
dock_pv1

> <b_m_subgroup_collapsed>
0

$$$$
207359
                    3D
 Schrodinger Suite 2021-1.
 66 69  0  0  1  0            999 V2000
   17.5537   13.3600   31.2239 C   0  0  0  0  0  0
   16.8012   14.6263   31.5841 C   0  0  0  0  0  0
   15.8545   15.1073   30.6669 C   0  0  0  0  0  0
   15.0677   16.2102   30.9814 C   0  0  0  0  0  0
   15.2799   16.8689   32.1909 C   0  0  0  0  0  0
   16.2769   16.4591   33.0689 C   0  0  0  0  0  0
   16.9964   15.2865   32.8173 C   0  0  0  0  0  0
   17.9890   14.8067   33.8964 C   0  0  0  0  0  0
   17.7106   13.4842   34.5165 N   0  0  0  0  0  0
   18.8645   12.5602   34.4064 C   0  0  0  0  0  0
   18.6376   11.1001   34.3919 C   0  0  0  0  0  0
   18.5881    9.8810   34.3906 C   0  0  0  0  0  0
   16.5953   13.3053   35.4059 C   0  0  0  0  0  0
   16.3940   12.1659   36.2062 C   0  0  0  0  0  0
   15.2038   11.9449   36.9031 C   0  0  0  0  0  0
   14.1528   12.8674   36.8512 C   0  0  0  0  0  0
   14.3790   14.0545   36.1342 C   0  0  0  0  0  0
   15.5851   14.2684   35.4852 C   0  0  0  0  0  0
   13.4362   15.0133   35.9906 F   0  0  0  0  0  0
   12.8353   12.5439   37.5306 C   0  0  0  0  0  0
   12.6975   11.5024   38.1747 O   0  0  0  0  0  0
   11.8343   13.4274   37.3523 N   0  0  0  0  0  0
   10.4328   13.3370   37.7884 C   0  0  1  0  0  0
    9.7002   12.1094   37.1708 C   0  0  0  0  0  0
    9.6678   12.1065   35.6209 C   0  0  0  0  0  0
   10.2633   10.4889   34.9234 S   0  0  2  0  0  0
   11.7916   10.5808   34.8916 O   0  0  0  0  0  0
    9.7438   10.7933   33.1880 C   0  0  0  0  0  0
    9.7909   11.9031   32.4991 N   0  0  0  0  0  0
    9.3082   11.5742   31.2352 N   0  0  0  0  0  0
    8.9918   10.2300   31.1768 N   0  0  0  0  0  0
    9.2754    9.7766   32.3994 N   0  0  0  0  0  0
   10.2281   13.4251   39.3223 C   0  0  0  0  0  0
   11.0769   13.1967   40.1593 O   0  0  0  0  0  0
    8.9525   13.8284   39.5906 O   0  0  0  0  0  0
   14.3632   18.0059   32.5481 C   0  0  0  0  0  0
   13.4560   18.2682   31.5787 N   0  0  0  0  0  0
   13.3215   17.6215   30.3815 C   0  0  0  0  0  0
   14.0751   16.6266   30.0742 N   0  0  0  0  0  0
   12.2331   18.0802   29.4401 C   0  0  0  0  0  0
   14.3996   18.6305   33.5974 O   0  0  0  0  0  0
    9.9734   14.2384   37.3762 H   0  0  0  0  0  0
    9.1827    8.8044   32.6597 H   0  0  0  0  0  0
   17.5348   12.6468   32.0429 H   0  0  0  0  0  0
   17.0860   12.8411   30.3908 H   0  0  0  0  0  0
   18.5933   13.5809   30.9817 H   0  0  0  0  0  0
   15.6897   14.5982   29.7292 H   0  0  0  0  0  0
   16.4374   17.0041   33.9900 H   0  0  0  0  0  0
   18.9795   14.8265   33.4372 H   0  0  0  0  0  0
   18.0522   15.5449   34.6982 H   0  0  0  0  0  0
   19.3917   12.7476   33.4696 H   0  0  0  0  0  0
   19.5826   12.7690   35.1911 H   0  0  0  0  0  0
   18.5939    8.8166   34.3667 H   0  0  0  0  0  0
   17.1425   11.4075   36.3226 H   0  0  0  0  0  0
   15.1007   11.0295   37.4679 H   0  0  0  0  0  0
   15.6599   15.2080   34.9888 H   0  0  0  0  0  0
   12.0718   14.2602   36.8319 H   0  0  0  0  0  0
   10.1676   11.1924   37.5345 H   0  0  0  0  0  0
    8.6703   12.0553   37.5283 H   0  0  0  0  0  0
    8.6618   12.3165   35.2501 H   0  0  0  0  0  0
   10.3204   12.8765   35.2081 H   0  0  0  0  0  0
    8.4537   14.0702   38.8056 H   0  0  0  0  0  0
   12.6186   18.1872   28.4270 H   0  0  0  0  0  0
   11.4175   17.3565   29.4139 H   0  0  0  0  0  0
   11.8094   19.0425   29.7327 H   0  0  0  0  0  0
   12.8473   19.0403   31.7939 H   0  0  0  0  0  0
  1 44  1  0  0  0
  1 45  1  0  0  0
  1 46  1  0  0  0
  1  2  1  0  0  0
  2  7  1  0  0  0
  2  3  2  0  0  0
  3 47  1  0  0  0
  3  4  1  0  0  0
  4  5  2  0  0  0
  4 39  1  0  0  0
  5 36  1  0  0  0
  5  6  1  0  0  0
  6 48  1  0  0  0
  6  7  2  0  0  0
  7  8  1  0  0  0
  8  9  1  0  0  0
  8 49  1  0  0  0
  8 50  1  0  0  0
  9 10  1  0  0  0
  9 13  1  0  0  0
 10 11  1  0  0  0
 10 51  1  0  0  0
 10 52  1  0  0  0
 11 12  3  0  0  0
 12 53  1  0  0  0
 13 18  1  0  0  0
 13 14  2  0  0  0
 14 15  1  0  0  0
 14 54  1  0  0  0
 15 16  2  0  0  0
 15 55  1  0  0  0
 16 17  1  0  0  0
 16 20  1  0  0  0
 17 18  2  0  0  0
 17 19  1  0  0  0
 18 56  1  0  0  0
 20 21  2  0  0  0
 20 22  1  0  0  0
 22 23  1  0  0  0
 22 57  1  0  0  0
 23 42  1  0  0  0
 23 24  1  0  0  0
 23 33  1  0  0  0
 24 25  1  0  0  0
 24 58  1  0  0  0
 24 59  1  0  0  0
 25 26  1  0  0  0
 25 60  1  0  0  0
 25 61  1  0  0  0
 26 27  2  0  0  0
 26 28  1  0  0  0
 28 29  2  0  0  0
 28 32  1  0  0  0
 29 30  1  0  0  0
 30 31  2  0  0  0
 31 32  1  0  0  0
 32 43  1  0  0  0
 33 34  2  0  0  0
 33 35  1  0  0  0
 35 62  1  0  0  0
 36 41  2  0  0  0
 36 37  1  0  0  0
 37 38  1  0  0  0
 37 66  1  0  0  0
 38 39  2  0  0  0
 38 40  1  0  0  0
 40 63  1  0  0  0
 40 64  1  0  0  0
 40 65  1  0  0  0
M  END
> <s_m_entry_id>
41724

> <s_m_entry_name>
ligand_docking-pose.84

> <s_m_Source_Path>
/home/csk/Desktop/cluster/DUD-E-result/tysy

> <s_m_Source_File>
ligand_docking-pose.sdf

> <i_m_Source_File_Index>
84

> <i_lp_mmshare_version>
53161

> <i_f3d_flags>
0

> <r_lp_tautomer_probability>
0.2651814

> <s_lp_Force_Field>
OPLS_2005

> <r_lp_Energy>
28.231886

> <b_lp_Chiralities_Consistent>
1

> <s_lp_Variant>
207359-1

> <s_i_glide_gridfile>
glide-grid_1syn

> <i_i_glide_lignum>
305

> <i_i_glide_rotatable_bonds>
14

> <r_i_docking_score>
-8.36884602685926

> <r_i_glide_ligand_efficiency>
-0.204118195777055

> <r_i_glide_ligand_efficiency_sa>
-0.703843880883001

> <r_i_glide_ligand_efficiency_ln>
-1.77547853484092

> <r_i_glide_gscore>
-8.36884602685926

> <r_i_glide_lipo>
-3.52402878360161

> <r_i_glide_hbond>
0

> <r_i_glide_metal>
0

> <r_i_glide_rewards>
-1.10192130896919

> <r_i_glide_evdw>
-66.3957290649414

> <r_i_glide_ecoul>
-6.96208810806274

> <r_i_glide_erotb>
0.644091380362656

> <r_i_glide_esite>
-0.022887645194642

> <r_i_glide_emodel>
-106.658627967489

> <r_i_glide_energy>
-73.3578171730042

> <r_i_glide_einternal>
7.24374532699585

> <i_i_glide_confnum>
60

> <i_i_glide_posenum>
201

> <r_i_glide_eff_state_penalty>
0

> <s_user_duplicate_titles>
207359

> <s_m_subgroup_title>
dock_pv

> <s_m_subgroupid>
dock_pv1

> <b_m_subgroup_collapsed>
0

$$$$
28145
                    3D
 Schrodinger Suite 2021-1.
 59 61  0  0  1  0            999 V2000
   20.7552   14.3821   33.0090 C   0  0  0  0  0  0
   20.0652   13.9805   34.3171 C   0  0  0  0  0  0
   18.6040   14.1338   34.2605 N   0  0  0  0  0  0
   18.1410   15.5229   34.1466 C   0  0  0  0  0  0
   17.0056   15.7507   33.1430 C   0  0  0  0  0  0
   16.9670   15.1068   31.9026 C   0  0  0  0  0  0
   15.9835   15.4279   30.9611 C   0  0  0  0  0  0
   15.0009   16.4090   31.2501 C   0  0  0  0  0  0
   15.0249   17.0492   32.5221 C   0  0  0  0  0  0
   16.0381   16.7040   33.4494 C   0  0  0  0  0  0
   14.0182   18.0277   32.7642 C   0  0  0  0  0  0
   13.0978   18.3444   31.8280 N   0  0  0  0  0  0
   13.1710   17.6899   30.6513 C   0  0  0  0  0  0
   14.0680   16.7352   30.3087 N   0  0  0  0  0  0
   12.2241   18.0354   29.7056 N   0  0  0  0  0  0
   14.0420   18.6279   33.9921 O   0  0  0  0  0  0
   17.7756   13.1619   34.8959 C   0  0  0  0  0  0
   18.1498   11.8089   34.9506 C   0  0  0  0  0  0
   17.3477   10.8654   35.5914 C   0  0  0  0  0  0
   16.1334   11.2451   36.1748 C   0  0  0  0  0  0
   15.7417   12.5848   36.1049 C   0  0  0  0  0  0
   16.5494   13.5221   35.4780 C   0  0  0  0  0  0
   15.2806   10.2280   36.8948 C   0  0  0  0  0  0
   15.7920    9.2656   37.4653 O   0  0  0  0  0  0
   13.9545   10.4464   36.8673 N   0  0  0  0  0  0
   12.9328    9.6104   37.5093 C   0  0  1  0  0  0
   12.2821   10.3825   38.6962 C   0  0  0  0  0  0
   11.6695   11.7711   38.3797 C   0  0  0  0  0  0
   11.0786   12.4610   39.6152 C   0  0  0  0  0  0
   11.3937   12.2027   40.7769 O   0  0  0  0  0  0
   10.1706   13.4264   39.2919 O   0  0  0  0  0  0
   11.9446    9.0657   36.4539 C   0  0  0  0  0  0
   10.7594    9.3194   36.4305 O   0  0  0  0  0  0
   12.5919    8.2289   35.5910 O   0  0  0  0  0  0
   21.8320   14.2220   33.0574 H   0  0  0  0  0  0
   20.3616   13.8283   32.1606 H   0  0  0  0  0  0
   20.6031   15.4280   32.7924 H   0  0  0  0  0  0
   20.4452   14.6236   35.1116 H   0  0  0  0  0  0
   20.3905   12.9837   34.6004 H   0  0  0  0  0  0
   17.8392   15.8267   35.1459 H   0  0  0  0  0  0
   18.9495   16.2071   33.8931 H   0  0  0  0  0  0
   17.7226   14.3711   31.6555 H   0  0  0  0  0  0
   15.9708   14.9362   29.9984 H   0  0  0  0  0  0
   16.0667   17.2220   34.3908 H   0  0  0  0  0  0
   11.5523   18.7564   29.9377 H   0  0  0  0  0  0
   12.3043   17.6601   28.7756 H   0  0  0  0  0  0
   13.3921   19.3376   34.0974 H   0  0  0  0  0  0
   19.0556   11.4590   34.4788 H   0  0  0  0  0  0
   17.6754    9.8343   35.6173 H   0  0  0  0  0  0
   14.8205   12.9281   36.5549 H   0  0  0  0  0  0
   16.1919   14.5385   35.4702 H   0  0  0  0  0  0
   13.6053   11.2053   36.3036 H   0  0  0  0  0  0
   13.4017    8.7214   37.9374 H   0  0  0  0  0  0
   13.0425   10.5069   39.4694 H   0  0  0  0  0  0
   11.5189    9.7513   39.1565 H   0  0  0  0  0  0
   10.8864   11.6649   37.6290 H   0  0  0  0  0  0
   12.4248   12.4355   37.9586 H   0  0  0  0  0  0
   10.0319   13.5241   38.3462 H   0  0  0  0  0  0
   11.9722    7.8571   34.9471 H   0  0  0  0  0  0
  1  2  1  0  0  0
  1 35  1  0  0  0
  1 36  1  0  0  0
  1 37  1  0  0  0
  2  3  1  0  0  0
  2 38  1  0  0  0
  2 39  1  0  0  0
  3  4  1  0  0  0
  3 17  1  0  0  0
  4  5  1  0  0  0
  4 40  1  0  0  0
  4 41  1  0  0  0
  5 10  1  0  0  0
  5  6  2  0  0  0
  6  7  1  0  0  0
  6 42  1  0  0  0
  7  8  2  0  0  0
  7 43  1  0  0  0
  8 14  1  0  0  0
  8  9  1  0  0  0
  9 10  2  0  0  0
  9 11  1  0  0  0
 10 44  1  0  0  0
 11 12  2  0  0  0
 11 16  1  0  0  0
 12 13  1  0  0  0
 13 14  2  0  0  0
 13 15  1  0  0  0
 15 45  1  0  0  0
 15 46  1  0  0  0
 16 47  1  0  0  0
 17 22  1  0  0  0
 17 18  2  0  0  0
 18 19  1  0  0  0
 18 48  1  0  0  0
 19 20  2  0  0  0
 19 49  1  0  0  0
 20 21  1  0  0  0
 20 23  1  0  0  0
 21 22  2  0  0  0
 21 50  1  0  0  0
 22 51  1  0  0  0
 23 24  2  0  0  0
 23 25  1  0  0  0
 25 26  1  0  0  0
 25 52  1  0  0  0
 26 27  1  0  0  0
 26 32  1  0  0  0
 26 53  1  0  0  0
 27 28  1  0  0  0
 27 54  1  0  0  0
 27 55  1  0  0  0
 28 29  1  0  0  0
 28 56  1  0  0  0
 28 57  1  0  0  0
 29 30  2  0  0  0
 29 31  1  0  0  0
 31 58  1  0  0  0
 32 33  2  0  0  0
 32 34  1  0  0  0
 34 59  1  0  0  0
M  END
> <s_m_entry_id>
41726

> <s_m_entry_name>
ligand_docking-pose.86

> <s_m_Source_Path>
/home/csk/Desktop/cluster/DUD-E-result/tysy

> <s_m_Source_File>
ligand_docking-pose.sdf

> <i_m_Source_File_Index>
86

> <i_lp_mmshare_version>
53161

> <i_f3d_flags>
0

> <r_lp_tautomer_probability>
1

> <s_lp_Force_Field>
OPLS_2005

> <r_lp_Energy>
11.963979

> <b_lp_Chiralities_Consistent>
1

> <s_lp_Variant>
28145-2

> <s_i_glide_gridfile>
glide-grid_1syn

> <i_i_glide_lignum>
878

> <i_i_glide_rotatable_bonds>
14

> <r_i_docking_score>
-8.35878691060492

> <r_i_glide_ligand_efficiency>
-0.245846673841321

> <r_i_glide_ligand_efficiency_sa>
-0.796447784944973

> <r_i_glide_ligand_efficiency_ln>
-1.84669048458391

> <r_i_glide_gscore>
-8.35878691060492

> <r_i_glide_lipo>
-3.49469960623799

> <r_i_glide_hbond>
-0.475721031567026

> <r_i_glide_metal>
0

> <r_i_glide_rewards>
-0.626172812487049

> <r_i_glide_evdw>
-50.4276657104492

> <r_i_glide_ecoul>
-14.2514762878418

> <r_i_glide_erotb>
0.923552966698422

> <r_i_glide_esite>
-0.0266416983125488

> <r_i_glide_emodel>
-94.6703336135252

> <r_i_glide_energy>
-64.679141998291

> <r_i_glide_einternal>
7.39472389221191

> <i_i_glide_confnum>
126

> <i_i_glide_posenum>
350

> <r_i_glide_eff_state_penalty>
0

> <s_user_duplicate_titles>
28145

> <s_m_subgroup_title>
dock_pv

> <s_m_subgroupid>
dock_pv1

> <b_m_subgroup_collapsed>
0

$$$$
62181
                    3D
 Schrodinger Suite 2021-1.
 57 59  0  0  1  0            999 V2000
   18.9206   15.5502   34.5446 C   0  0  0  0  0  0
   17.5399   15.6320   33.8855 C   0  0  0  0  0  0
   16.4472   15.0277   34.6618 N   0  0  0  0  0  0
   15.2453   15.8708   34.8473 C   0  0  0  0  0  0
   14.7242   16.6711   33.6563 C   0  0  0  0  0  0
   13.9890   17.8282   33.9336 C   0  0  0  0  0  0
   13.4080   18.5662   32.9088 C   0  0  0  0  0  0
   13.5725   18.1555   31.5958 C   0  0  0  0  0  0
   14.3269   17.0164   31.2894 C   0  0  0  0  0  0
   14.8895   16.2588   32.3254 C   0  0  0  0  0  0
   14.5168   16.6222   29.8307 C   0  0  0  0  0  0
   13.9027   17.4657   28.8926 N   0  0  0  0  0  0
   13.2133   18.4822   29.2491 C   0  0  0  0  0  0
   12.9919   18.8664   30.5517 N   0  0  0  0  0  0
   12.5888   19.3615   28.2020 C   0  0  0  0  0  0
   15.1847   15.6281   29.5541 O   0  0  0  0  0  0
   16.5186   13.7403   35.1805 C   0  0  0  0  0  0
   17.3801   12.7002   34.8208 C   0  0  0  0  0  0
   17.1018   11.4884   35.4682 C   0  0  0  0  0  0
   16.0139   11.5643   36.3333 C   0  0  0  0  0  0
   15.3925   13.1945   36.3918 S   0  0  0  0  0  0
   15.3916   10.4771   37.0499 C   0  0  0  0  0  0
   15.6472    9.3047   36.7808 O   0  0  0  0  0  0
   14.5350   10.8704   38.0113 N   0  0  0  0  0  0
   13.7386   10.0912   38.9668 C   0  0  2  0  0  0
   13.2666   11.0502   40.1012 C   0  0  0  0  0  0
   12.3982   12.2522   39.6527 C   0  0  0  0  0  0
   12.3514   13.3510   40.7188 C   0  0  0  0  0  0
   11.4864   13.4277   41.5910 O   0  0  0  0  0  0
   13.3918   14.2276   40.6136 O   0  0  0  0  0  0
   14.5293    8.8989   39.5530 C   0  0  0  0  0  0
   15.3921    9.0278   40.3922 O   0  0  0  0  0  0
   14.1222    7.7230   38.9921 O   0  0  0  0  0  0
   12.8530    9.7273   38.4424 H   0  0  0  0  0  0
   19.6023   16.2313   34.0458 H   0  0  0  0  0  0
   18.8705   15.8281   35.5910 H   0  0  0  0  0  0
   19.3660   14.5598   34.4813 H   0  0  0  0  0  0
   17.5838   15.1566   32.9036 H   0  0  0  0  0  0
   17.3277   16.6825   33.6851 H   0  0  0  0  0  0
   14.3919   15.2546   35.1233 H   0  0  0  0  0  0
   15.3921   16.5269   35.7020 H   0  0  0  0  0  0
   13.8449   18.1547   34.9524 H   0  0  0  0  0  0
   12.8378   19.4513   33.1474 H   0  0  0  0  0  0
   15.4327   15.3504   32.1039 H   0  0  0  0  0  0
   12.7470   18.9907   27.1893 H   0  0  0  0  0  0
   11.5189   19.4275   28.3905 H   0  0  0  0  0  0
   12.9918   20.3709   28.2464 H   0  0  0  0  0  0
   12.4333   19.6801   30.7523 H   0  0  0  0  0  0
   18.1557   12.7877   34.0746 H   0  0  0  0  0  0
   17.6505   10.5781   35.2758 H   0  0  0  0  0  0
   14.4386   11.8683   38.1062 H   0  0  0  0  0  0
   14.1370   11.4217   40.6456 H   0  0  0  0  0  0
   12.6894   10.4809   40.8334 H   0  0  0  0  0  0
   11.3826   11.9127   39.4438 H   0  0  0  0  0  0
   12.7591   12.6910   38.7211 H   0  0  0  0  0  0
   13.9648   14.0432   39.8645 H   0  0  0  0  0  0
   13.5149    7.8470   38.2610 H   0  0  0  0  0  0
  1  2  1  0  0  0
  1 35  1  0  0  0
  1 36  1  0  0  0
  1 37  1  0  0  0
  2  3  1  0  0  0
  2 38  1  0  0  0
  2 39  1  0  0  0
  3  4  1  0  0  0
  3 17  1  0  0  0
  4 40  1  0  0  0
  4 41  1  0  0  0
  4  5  1  0  0  0
  5 10  2  0  0  0
  5  6  1  0  0  0
  6 42  1  0  0  0
  6  7  2  0  0  0
  7 43  1  0  0  0
  7  8  1  0  0  0
  8  9  2  0  0  0
  8 14  1  0  0  0
  9 11  1  0  0  0
  9 10  1  0  0  0
 10 44  1  0  0  0
 11 16  2  0  0  0
 11 12  1  0  0  0
 12 13  2  0  0  0
 13 14  1  0  0  0
 13 15  1  0  0  0
 14 48  1  0  0  0
 15 45  1  0  0  0
 15 46  1  0  0  0
 15 47  1  0  0  0
 17 21  1  0  0  0
 17 18  2  0  0  0
 18 19  1  0  0  0
 18 49  1  0  0  0
 19 20  2  0  0  0
 19 50  1  0  0  0
 20 21  1  0  0  0
 20 22  1  0  0  0
 22 23  2  0  0  0
 22 24  1  0  0  0
 24 25  1  0  0  0
 24 51  1  0  0  0
 25 34  1  0  0  0
 25 26  1  0  0  0
 25 31  1  0  0  0
 26 27  1  0  0  0
 26 52  1  0  0  0
 26 53  1  0  0  0
 27 28  1  0  0  0
 27 54  1  0  0  0
 27 55  1  0  0  0
 28 29  2  0  0  0
 28 30  1  0  0  0
 30 56  1  0  0  0
 31 32  2  0  0  0
 31 33  1  0  0  0
 33 57  1  0  0  0
M  END
> <s_m_entry_id>
41727

> <s_m_entry_name>
ligand_docking-pose.87

> <s_m_Source_Path>
/home/csk/Desktop/cluster/DUD-E-result/tysy

> <s_m_Source_File>
ligand_docking-pose.sdf

> <i_m_Source_File_Index>
87

> <i_lp_mmshare_version>
53161

> <i_f3d_flags>
0

> <r_lp_tautomer_probability>
0.116051

> <s_lp_Force_Field>
OPLS_2005

> <r_lp_Energy>
13.09123

> <b_lp_Chiralities_Consistent>
1

> <s_lp_Variant>
62181-2

> <s_i_glide_gridfile>
glide-grid_1syn

> <i_i_glide_lignum>
862

> <i_i_glide_rotatable_bonds>
13

> <r_i_docking_score>
-8.35414596162332

> <r_i_glide_ligand_efficiency>
-0.25315593823101

> <r_i_glide_ligand_efficiency_sa>
-0.812006361771871

> <r_i_glide_ligand_efficiency_ln>
-1.85791880641222

> <r_i_glide_gscore>
-8.35414596162332

> <r_i_glide_lipo>
-3.62482112015806

> <r_i_glide_hbond>
-0.191291478873511

> <r_i_glide_metal>
0

> <r_i_glide_rewards>
-1.1861760154053

> <r_i_glide_evdw>
-56.0929489135742

> <r_i_glide_ecoul>
-9.44644641876221

> <r_i_glide_erotb>
0.905656162124925

> <r_i_glide_esite>
-0.035899100818337

> <r_i_glide_emodel>
-97.3038569201271

> <r_i_glide_energy>
-65.5393953323364

> <r_i_glide_einternal>
8.3820972442627

> <i_i_glide_confnum>
41

> <i_i_glide_posenum>
277

> <r_i_glide_eff_state_penalty>
0

> <s_user_duplicate_titles>
62181

> <s_m_subgroup_title>
dock_pv

> <s_m_subgroupid>
dock_pv1

> <b_m_subgroup_collapsed>
0

$$$$
40973
                    3D
 Schrodinger Suite 2021-1.
 35 36  0  0  1  0            999 V2000
   11.9515   20.6280   31.5910 C   0  0  0  0  0  0
   12.5920   19.5907   31.6306 C   0  0  0  0  0  0
   13.3920   18.4081   31.5910 C   0  0  0  0  0  0
   13.9295   17.9209   32.7319 C   0  0  0  0  0  0
   14.7335   16.8039   32.7935 N   0  0  0  0  0  0
   15.0805   16.1336   31.6301 C   0  0  0  0  0  0
   15.8371   15.1755   31.4935 O   0  0  0  0  0  0
   14.5018   16.6405   30.5008 N   0  0  0  0  0  0
   13.6767   17.7099   30.3380 C   0  0  0  0  0  0
   13.2580   18.0040   29.2190 O   0  0  0  0  0  0
   15.2156   16.3756   34.1087 C   0  0  1  0  0  0
   14.1800   16.0458   35.1910 C   0  0  0  0  0  0
   14.6367   14.7035   35.7640 C   0  0  1  0  0  0
   15.9976   14.3946   35.1429 C   0  0  1  0  0  0
   16.1444   15.3359   34.0904 O   0  0  0  0  0  0
   17.2676   14.5141   35.9873 C   0  0  0  0  0  0
   18.4108   14.5456   35.1434 O   0  0  0  0  0  0
   18.9576   13.2073   34.3910 P   0  0  0  0  0  0
   18.5124   11.9075   34.9616 O   0  0  0  0  0  0
   18.5920   13.4280   32.8267 O   0  0  0  0  0  0
   20.5583   13.4280   34.3910 O   0  0  0  0  0  0
   14.5920   14.6280   37.1771 O   0  0  0  0  0  0
   14.7338   16.1492   29.6518 H   0  0  0  0  0  0
   11.3920   21.5281   31.5082 H   0  0  0  0  0  0
   13.7717   18.3868   33.6980 H   0  0  0  0  0  0
   15.7756   17.2622   34.4131 H   0  0  0  0  0  0
   14.1920   16.8464   35.9306 H   0  0  0  0  0  0
   13.1763   15.9855   34.7671 H   0  0  0  0  0  0
   13.9420   13.9513   35.3875 H   0  0  0  0  0  0
   15.9781   13.3682   34.7910 H   0  0  0  0  0  0
   17.2562   15.4280   36.5758 H   0  0  0  0  0  0
   17.3158   13.6815   36.6876 H   0  0  0  0  0  0
   19.1059   12.8588   32.2069 H   0  0  0  0  0  0
   21.0227   12.7395   33.8336 H   0  0  0  0  0  0
   15.1513   15.3267   37.5480 H   0  0  0  0  0  0
  1  2  3  0  0  0
  1 24  1  0  0  0
  2  3  1  0  0  0
  3  9  1  0  0  0
  3  4  2  0  0  0
  4  5  1  0  0  0
  4 25  1  0  0  0
  5  6  1  0  0  0
  5 11  1  0  0  0
  6  7  2  0  0  0
  6  8  1  0  0  0
  8 23  1  0  0  0
  8  9  1  0  0  0
  9 10  2  0  0  0
 11 15  1  0  0  0
 11 12  1  0  0  0
 11 26  1  0  0  0
 12 13  1  0  0  0
 12 27  1  0  0  0
 12 28  1  0  0  0
 13 14  1  0  0  0
 13 22  1  0  0  0
 13 29  1  0  0  0
 14 15  1  0  0  0
 14 16  1  0  0  0
 14 30  1  0  0  0
 16 17  1  0  0  0
 16 31  1  0  0  0
 16 32  1  0  0  0
 17 18  1  0  0  0
 18 19  2  0  0  0
 18 20  1  0  0  0
 18 21  1  0  0  0
 20 33  1  0  0  0
 21 34  1  0  0  0
 22 35  1  0  0  0
M  END
> <s_m_entry_id>
41732

> <s_m_entry_name>
ligand_docking-pose.92

> <s_m_Source_Path>
/home/csk/Desktop/cluster/DUD-E-result/tysy

> <s_m_Source_File>
ligand_docking-pose.sdf

> <i_m_Source_File_Index>
92

> <i_lp_mmshare_version>
53161

> <i_f3d_flags>
0

> <r_lp_tautomer_probability>
1

> <s_lp_Force_Field>
OPLS_2005

> <r_lp_Energy>
19.992016

> <b_lp_Chiralities_Consistent>
1

> <s_lp_Variant>
40973-2

> <s_i_glide_gridfile>
glide-grid_1syn

> <i_i_glide_lignum>
730

> <i_i_glide_rotatable_bonds>
8

> <r_i_docking_score>
-8.31332158379593

> <r_i_glide_ligand_efficiency>
-0.377878253808906

> <r_i_glide_ligand_efficiency_sa>
-1.05882972828097

> <r_i_glide_ligand_efficiency_ln>
-2.03207903085229

> <r_i_glide_gscore>
-8.31332158379593

> <r_i_glide_lipo>
-2.29233784428358

> <r_i_glide_hbond>
-0.290853164367316

> <r_i_glide_metal>
0

> <r_i_glide_rewards>
-2.36553125555194

> <r_i_glide_evdw>
-33.9699249267578

> <r_i_glide_ecoul>
-16.3255615234375

> <r_i_glide_erotb>
0.853186773393542

> <r_i_glide_esite>
-0.0704556181331185

> <r_i_glide_emodel>
-70.6332603040807

> <r_i_glide_energy>
-50.2954864501953

> <r_i_glide_einternal>
13.5155220031738

> <i_i_glide_confnum>
220

> <i_i_glide_posenum>
16

> <r_i_glide_eff_state_penalty>
0

> <s_user_duplicate_titles>
40973

> <s_m_subgroup_title>
dock_pv

> <s_m_subgroupid>
dock_pv1

> <b_m_subgroup_collapsed>
0

$$$$
207373
                    3D
 Schrodinger Suite 2021-1.
 67 69  0  0  1  0            999 V2000
   17.5649   13.3973   31.1628 C   0  0  0  0  0  0
   16.8131   14.6655   31.5221 C   0  0  0  0  0  0
   15.8131   15.1121   30.6470 C   0  0  0  0  0  0
   15.0403   16.2217   30.9755 C   0  0  0  0  0  0
   15.3309   16.9357   32.1383 C   0  0  0  0  0  0
   16.3865   16.5648   32.9605 C   0  0  0  0  0  0
   17.0767   15.3770   32.7106 C   0  0  0  0  0  0
   18.1134   14.9144   33.7457 C   0  0  0  0  0  0
   17.7712   13.6613   34.4585 N   0  0  0  0  0  0
   18.9068   12.7312   34.5915 C   0  0  0  0  0  0
   18.6467   11.2934   34.3961 C   0  0  0  0  0  0
   18.5905   10.0765   34.3496 C   0  0  0  0  0  0
   16.6332   13.5723   35.3260 C   0  0  0  0  0  0
   15.7233   14.6265   35.4687 C   0  0  0  0  0  0
   14.5364   14.4955   36.1763 C   0  0  0  0  0  0
   14.2174   13.3019   36.8332 C   0  0  0  0  0  0
   15.1697   12.2703   36.7964 C   0  0  0  0  0  0
   16.3399   12.4184   36.0695 C   0  0  0  0  0  0
   15.0095   11.1080   37.4675 F   0  0  0  0  0  0
   12.9065   13.2048   37.5798 C   0  0  0  0  0  0
   12.1476   14.1727   37.6362 O   0  0  0  0  0  0
   12.6200   12.0287   38.1588 N   0  0  0  0  0  0
   11.4502   11.7617   38.9947 C   0  0  1  0  0  0
   10.8158   10.3605   38.7559 C   0  0  0  0  0  0
   10.3167   10.0513   37.3184 C   0  0  0  0  0  0
   11.3499   10.0353   36.1611 C   0  0  0  0  0  0
   12.7403    8.7689   36.3970 S   0  0  0  0  0  0
   13.5735    8.7897   35.1924 O   0  0  0  0  0  0
   13.3446    8.9336   37.7213 O   0  0  0  0  0  0
   11.8891    7.2515   36.3949 N   0  0  0  0  0  0
   11.8599   11.9731   40.4682 C   0  0  0  0  0  0
   11.3940   12.8393   41.1816 O   0  0  0  0  0  0
   12.7951   11.0509   40.8513 O   0  0  0  0  0  0
   14.4324   18.0844   32.5186 C   0  0  0  0  0  0
   13.4643   18.3002   31.6001 N   0  0  0  0  0  0
   13.2451   17.5931   30.4512 C   0  0  0  0  0  0
   13.9908   16.6023   30.1230 N   0  0  0  0  0  0
   12.1051   18.0204   29.5674 C   0  0  0  0  0  0
   14.5322   18.7365   33.5513 O   0  0  0  0  0  0
   10.6764   12.4985   38.7706 H   0  0  0  0  0  0
   17.6610   12.7260   32.0140 H   0  0  0  0  0  0
   17.0373   12.8229   30.4008 H   0  0  0  0  0  0
   18.5689   13.6350   30.8066 H   0  0  0  0  0  0
   15.5941   14.5743   29.7364 H   0  0  0  0  0  0
   16.6150   17.1549   33.8402 H   0  0  0  0  0  0
   19.0611   14.8268   33.2149 H   0  0  0  0  0  0
   18.2743   15.6960   34.4916 H   0  0  0  0  0  0
   19.7193   12.9831   33.9097 H   0  0  0  0  0  0
   19.3099   12.8148   35.5917 H   0  0  0  0  0  0
   18.5751    9.0152   34.3244 H   0  0  0  0  0  0
   15.9110   15.5944   35.0701 H   0  0  0  0  0  0
   13.8742   15.3451   36.2091 H   0  0  0  0  0  0
   17.0025   11.5808   36.1441 H   0  0  0  0  0  0
   13.2640   11.2619   38.0067 H   0  0  0  0  0  0
   11.4784    9.5657   39.0907 H   0  0  0  0  0  0
    9.9500   10.2737   39.4150 H   0  0  0  0  0  0
    9.8043    9.0851   37.3352 H   0  0  0  0  0  0
    9.5339   10.7727   37.0660 H   0  0  0  0  0  0
   10.8572    9.7590   35.2282 H   0  0  0  0  0  0
   11.8081   11.0050   35.9834 H   0  0  0  0  0  0
   11.8020    6.8156   35.4673 H   0  0  0  0  0  0
   12.0495    6.6270   37.1891 H   0  0  0  0  0  0
   13.0602   10.4894   40.1188 H   0  0  0  0  0  0
   11.5468   17.1542   29.2092 H   0  0  0  0  0  0
   11.3971   18.6573   30.0977 H   0  0  0  0  0  0
   12.4673   18.5725   28.6995 H   0  0  0  0  0  0
   12.8603   19.0745   31.8225 H   0  0  0  0  0  0
  1 41  1  0  0  0
  1 42  1  0  0  0
  1 43  1  0  0  0
  1  2  1  0  0  0
  2  7  1  0  0  0
  2  3  2  0  0  0
  3 44  1  0  0  0
  3  4  1  0  0  0
  4  5  2  0  0  0
  4 37  1  0  0  0
  5 34  1  0  0  0
  5  6  1  0  0  0
  6 45  1  0  0  0
  6  7  2  0  0  0
  7  8  1  0  0  0
  8  9  1  0  0  0
  8 46  1  0  0  0
  8 47  1  0  0  0
  9 10  1  0  0  0
  9 13  1  0  0  0
 10 11  1  0  0  0
 10 48  1  0  0  0
 10 49  1  0  0  0
 11 12  3  0  0  0
 12 50  1  0  0  0
 13 18  1  0  0  0
 13 14  2  0  0  0
 14 15  1  0  0  0
 14 51  1  0  0  0
 15 16  2  0  0  0
 15 52  1  0  0  0
 16 17  1  0  0  0
 16 20  1  0  0  0
 17 18  2  0  0  0
 17 19  1  0  0  0
 18 53  1  0  0  0
 20 21  2  0  0  0
 20 22  1  0  0  0
 22 23  1  0  0  0
 22 54  1  0  0  0
 23 40  1  0  0  0
 23 24  1  0  0  0
 23 31  1  0  0  0
 24 25  1  0  0  0
 24 55  1  0  0  0
 24 56  1  0  0  0
 25 26  1  0  0  0
 25 57  1  0  0  0
 25 58  1  0  0  0
 26 27  1  0  0  0
 26 59  1  0  0  0
 26 60  1  0  0  0
 27 28  2  0  0  0
 27 29  2  0  0  0
 27 30  1  0  0  0
 30 61  1  0  0  0
 30 62  1  0  0  0
 31 32  2  0  0  0
 31 33  1  0  0  0
 33 63  1  0  0  0
 34 39  2  0  0  0
 34 35  1  0  0  0
 35 36  1  0  0  0
 35 67  1  0  0  0
 36 37  2  0  0  0
 36 38  1  0  0  0
 38 64  1  0  0  0
 38 65  1  0  0  0
 38 66  1  0  0  0
M  END
> <s_m_entry_id>
41733

> <s_m_entry_name>
ligand_docking-pose.93

> <s_m_Source_Path>
/home/csk/Desktop/cluster/DUD-E-result/tysy

> <s_m_Source_File>
ligand_docking-pose.sdf

> <i_m_Source_File_Index>
93

> <i_lp_mmshare_version>
53161

> <i_f3d_flags>
0

> <r_lp_tautomer_probability>
0.883938

> <s_lp_Force_Field>
OPLS_2005

> <r_lp_Energy>
27.008548

> <b_lp_Chiralities_Consistent>
1

> <s_lp_Variant>
207373-1

> <s_i_glide_gridfile>
glide-grid_1syn

> <i_i_glide_lignum>
299

> <i_i_glide_rotatable_bonds>
14

> <r_i_docking_score>
-8.30449702522881

> <r_i_glide_ligand_efficiency>
-0.212935821159713

> <r_i_glide_ligand_efficiency_sa>
-0.722110392462605

> <r_i_glide_ligand_efficiency_ln>
-1.7807198993758

> <r_i_glide_gscore>
-8.30449702522881

> <r_i_glide_lipo>
-3.42982268983513

> <r_i_glide_hbond>
-0.367884294842268

> <r_i_glide_metal>
0

> <r_i_glide_rewards>
-0.911551874934948

> <r_i_glide_evdw>
-56.9172325134277

> <r_i_glide_ecoul>
-9.40761756896973

> <r_i_glide_erotb>
0.724841061402842

> <r_i_glide_esite>
-0.0630749660024604

> <r_i_glide_emodel>
-97.051896529806

> <r_i_glide_energy>
-66.3248500823975

> <r_i_glide_einternal>
4.99899291992188

> <i_i_glide_confnum>
41

> <i_i_glide_posenum>
265

> <r_i_glide_eff_state_penalty>
0

> <s_user_duplicate_titles>
207373

> <s_m_subgroup_title>
dock_pv

> <s_m_subgroupid>
dock_pv1

> <b_m_subgroup_collapsed>
0

$$$$
441
                    3D
 Schrodinger Suite 2021-1.
 61 64  0  0  1  0            999 V2000
    8.6717    9.9408   34.7694 C   0  0  0  0  0  0
   10.0181   10.2692   35.3695 C   0  0  0  0  0  0
   11.0623    9.4280   35.0444 N   0  0  0  0  0  0
   12.3400    9.6660   35.5386 C   0  0  0  0  0  0
   13.4035    8.8435   35.1898 C   0  0  0  0  0  0
   14.6958    9.1761   35.5958 C   0  0  0  0  0  0
   14.9007   10.2884   36.4237 C   0  0  0  0  0  0
   13.8078   11.0593   36.8451 C   0  0  0  0  0  0
   12.5266   10.7701   36.3728 C   0  0  0  0  0  0
   11.3339   11.6442   36.7414 C   0  0  0  0  0  0
   10.1182   11.2817   36.1456 N   0  0  0  0  0  0
   11.4867   12.5874   37.5167 O   0  0  0  0  0  0
   16.2899   10.5945   36.9593 C   0  0  0  0  0  0
   17.2120   11.2089   35.9925 N   0  0  0  0  0  0
   18.5119   10.5591   35.7736 C   0  0  0  0  0  0
   18.5806    9.8767   34.4753 C   0  0  0  0  0  0
   18.5921    9.4281   33.3434 C   0  0  0  0  0  0
   17.0253   12.5354   35.5130 C   0  0  0  0  0  0
   16.0568   13.3740   36.0772 C   0  0  0  0  0  0
   15.7492   14.5992   35.5113 C   0  0  0  0  0  0
   16.4254   15.0126   34.3622 C   0  0  0  0  0  0
   17.5032   14.2715   33.8804 C   0  0  0  0  0  0
   17.7977   13.0425   34.4524 C   0  0  0  0  0  0
   15.9463   16.1923   33.5857 C   0  0  0  0  0  0
   16.7329   16.9826   33.0799 O   0  0  0  0  0  0
   14.6095   16.2428   33.4377 N   0  0  0  0  0  0
   13.7938   17.2355   32.7121 C   0  0  2  0  0  0
   13.9665   17.2064   31.1934 C   0  0  0  0  0  0
   14.6015   16.1295   30.5495 C   0  0  0  0  0  0
   14.7207   16.0879   29.1645 C   0  0  0  0  0  0
   14.1909   17.1196   28.3942 C   0  0  0  0  0  0
   13.5414   18.1852   29.0017 C   0  0  0  0  0  0
   13.4212   18.2225   30.3861 C   0  0  0  0  0  0
   12.9972   19.1764   28.2330 O   0  0  0  0  0  0
   13.8874   18.6278   33.3686 C   0  0  0  0  0  0
   14.8500   19.0244   33.9919 O   0  0  0  0  0  0
   12.7307   19.3271   33.1910 O   0  0  0  0  0  0
   12.7802   16.8841   32.9043 H   0  0  0  0  0  0
    7.9249   10.7033   34.9999 H   0  0  0  0  0  0
    8.7411    9.8651   33.6838 H   0  0  0  0  0  0
    8.3012    8.9903   35.1505 H   0  0  0  0  0  0
   13.2264    7.9867   34.5619 H   0  0  0  0  0  0
   15.5333    8.5676   35.2859 H   0  0  0  0  0  0
   13.9490   11.8825   37.5308 H   0  0  0  0  0  0
   10.9367    8.6054   34.4572 H   0  0  0  0  0  0
   16.1911   11.2294   37.8338 H   0  0  0  0  0  0
   16.6985    9.6532   37.3110 H   0  0  0  0  0  0
   19.3269   11.2805   35.8424 H   0  0  0  0  0  0
   18.7315    9.8279   36.5466 H   0  0  0  0  0  0
   18.5943    9.0907   32.3310 H   0  0  0  0  0  0
   15.5155   13.0948   36.9602 H   0  0  0  0  0  0
   14.9554   15.1914   35.9447 H   0  0  0  0  0  0
   18.0621   14.5943   33.0111 H   0  0  0  0  0  0
   18.5923   12.4746   33.9953 H   0  0  0  0  0  0
   14.0812   15.5731   33.9730 H   0  0  0  0  0  0
   15.0047   15.3000   31.1104 H   0  0  0  0  0  0
   15.1984   15.2451   28.6860 H   0  0  0  0  0  0
   14.1920   17.0724   27.3169 H   0  0  0  0  0  0
   12.8947   19.0590   30.8162 H   0  0  0  0  0  0
   12.3907   19.7392   28.7214 H   0  0  0  0  0  0
   12.7551   20.0795   33.8200 H   0  0  0  0  0  0
  1 39  1  0  0  0
  1 40  1  0  0  0
  1 41  1  0  0  0
  1  2  1  0  0  0
  2  3  1  0  0  0
  2 11  2  0  0  0
  3  4  1  0  0  0
  3 45  1  0  0  0
  4  9  2  0  0  0
  4  5  1  0  0  0
  5  6  2  0  0  0
  5 42  1  0  0  0
  6  7  1  0  0  0
  6 43  1  0  0  0
  7  8  2  0  0  0
  7 13  1  0  0  0
  8  9  1  0  0  0
  8 44  1  0  0  0
  9 10  1  0  0  0
 10 12  2  0  0  0
 10 11  1  0  0  0
 13 14  1  0  0  0
 13 46  1  0  0  0
 13 47  1  0  0  0
 14 15  1  0  0  0
 14 18  1  0  0  0
 15 16  1  0  0  0
 15 48  1  0  0  0
 15 49  1  0  0  0
 16 17  3  0  0  0
 17 50  1  0  0  0
 18 23  1  0  0  0
 18 19  2  0  0  0
 19 20  1  0  0  0
 19 51  1  0  0  0
 20 21  2  0  0  0
 20 52  1  0  0  0
 21 22  1  0  0  0
 21 24  1  0  0  0
 22 23  2  0  0  0
 22 53  1  0  0  0
 23 54  1  0  0  0
 24 25  2  0  0  0
 24 26  1  0  0  0
 26 27  1  0  0  0
 26 55  1  0  0  0
 27 38  1  0  0  0
 27 28  1  0  0  0
 27 35  1  0  0  0
 28 33  1  0  0  0
 28 29  2  0  0  0
 29 30  1  0  0  0
 29 56  1  0  0  0
 30 31  2  0  0  0
 30 57  1  0  0  0
 31 32  1  0  0  0
 31 58  1  0  0  0
 32 33  2  0  0  0
 32 34  1  0  0  0
 33 59  1  0  0  0
 34 60  1  0  0  0
 35 36  2  0  0  0
 35 37  1  0  0  0
 37 61  1  0  0  0
M  END
> <s_m_entry_id>
41734

> <s_m_entry_name>
ligand_docking-pose.94

> <s_m_Source_Path>
/home/csk/Desktop/cluster/DUD-E-result/tysy

> <s_m_Source_File>
ligand_docking-pose.sdf

> <i_m_Source_File_Index>
94

> <i_lp_mmshare_version>
53161

> <i_f3d_flags>
0

> <r_lp_tautomer_probability>
0.116050999999694

> <s_lp_Force_Field>
OPLS_2005

> <r_lp_Energy>
21.54066

> <b_lp_Chiralities_Consistent>
1

> <s_lp_Variant>
441-2

> <s_i_glide_gridfile>
glide-grid_1syn

> <i_i_glide_lignum>
567

> <i_i_glide_rotatable_bonds>
12

> <r_i_docking_score>
-8.29641497473636

> <r_i_glide_ligand_efficiency>
-0.224227431749631

> <r_i_glide_ligand_efficiency_sa>
-0.747175546915243

> <r_i_glide_ligand_efficiency_ln>
-1.79929791245809

> <r_i_glide_gscore>
-8.29641497473636

> <r_i_glide_lipo>
-3.75521273363448

> <r_i_glide_hbond>
-0.304338419326863

> <r_i_glide_metal>
0

> <r_i_glide_rewards>
-1.06794565622792

> <r_i_glide_evdw>
-43.7169914245605

> <r_i_glide_ecoul>
-11.7347564697266

> <r_i_glide_erotb>
0.827206634499655

> <r_i_glide_esite>
-0.0500617583597378

> <r_i_glide_emodel>
-72.7609802997993

> <r_i_glide_energy>
-55.4517478942871

> <r_i_glide_einternal>
13.4728107452393

> <i_i_glide_confnum>
22

> <i_i_glide_posenum>
114

> <r_i_glide_eff_state_penalty>
0

> <s_user_duplicate_titles>
441

> <s_m_subgroup_title>
dock_pv

> <s_m_subgroupid>
dock_pv1

> <b_m_subgroup_collapsed>
0

$$$$
54814
                    3D
 Schrodinger Suite 2021-1.
 52 54  0  0  1  0            999 V2000
   15.7928   11.7556   36.3914 C   0  0  0  0  0  0
   16.8129   12.1715   35.5398 C   0  0  0  0  0  0
   16.9318   13.5132   35.1851 C   0  0  0  0  0  0
   16.0400   14.4428   35.7282 C   0  0  0  0  0  0
   15.0198   14.0317   36.5804 C   0  0  0  0  0  0
   14.8764   12.6775   36.9190 C   0  0  0  0  0  0
   13.7906   12.1953   37.8585 C   0  0  0  0  0  0
   13.7568   11.0169   38.2205 O   0  0  0  0  0  0
   12.8891   13.1039   38.2856 N   0  0  0  0  0  0
   11.8040   12.8335   39.2485 C   0  0  1  0  0  0
   12.2195   13.2956   40.6745 C   0  0  0  0  0  0
   13.5235   12.6514   41.1901 C   0  0  0  0  0  0
   13.7919   12.8923   42.6729 C   0  0  0  0  0  0
   13.3323   13.8289   43.3243 O   0  0  0  0  0  0
   14.5920   11.9231   43.1910 O   0  0  0  0  0  0
   10.4342   13.4048   38.8086 C   0  0  0  0  0  0
    9.6063   13.8281   39.5912 O   0  0  0  0  0  0
   10.2827   13.3259   37.4544 O   0  0  0  0  0  0
   17.9315   13.8578   34.2598 N   0  0  0  0  0  0
   18.1191   15.2081   33.7285 C   0  0  0  0  0  0
   17.0009   15.6176   32.7704 C   0  0  0  0  0  0
   16.8622   15.0086   31.5218 C   0  0  0  0  0  0
   15.8364   15.4282   30.6730 C   0  0  0  0  0  0
   14.9665   16.4632   31.0958 C   0  0  0  0  0  0
   15.1704   17.0323   32.3896 C   0  0  0  0  0  0
   16.1850   16.6148   33.2024 N   0  0  0  0  0  0
   14.2625   18.0659   32.7716 C   0  0  0  0  0  0
   13.2770   18.4785   31.9426 N   0  0  0  0  0  0
   13.1910   17.8810   30.7385 C   0  0  0  0  0  0
   13.9767   16.8901   30.2663 N   0  0  0  0  0  0
   12.1919   18.3229   29.8957 N   0  0  0  0  0  0
   14.4322   18.6280   34.0089 O   0  0  0  0  0  0
   15.7241   10.7048   36.6378 H   0  0  0  0  0  0
   17.4957   11.4387   35.1359 H   0  0  0  0  0  0
   16.1197   15.4915   35.4994 H   0  0  0  0  0  0
   14.3650   14.7951   36.9738 H   0  0  0  0  0  0
   12.9691   14.0564   37.9646 H   0  0  0  0  0  0
   11.6312   11.7560   39.2946 H   0  0  0  0  0  0
   11.4172   13.0754   41.3793 H   0  0  0  0  0  0
   12.3423   14.3807   40.6848 H   0  0  0  0  0  0
   14.3753   13.0279   40.6279 H   0  0  0  0  0  0
   13.4847   11.5746   41.0201 H   0  0  0  0  0  0
   14.7589   12.0168   44.1431 H   0  0  0  0  0  0
   11.0457   12.9268   37.0309 H   0  0  0  0  0  0
   18.6146   13.1569   33.9996 H   0  0  0  0  0  0
   18.2094   15.9197   34.5511 H   0  0  0  0  0  0
   19.0672   15.2474   33.1907 H   0  0  0  0  0  0
   17.5379   14.2188   31.2185 H   0  0  0  0  0  0
   15.6966   14.9801   29.6992 H   0  0  0  0  0  0
   12.1101   17.9038   28.9847 H   0  0  0  0  0  0
   11.5440   19.0274   30.2201 H   0  0  0  0  0  0
   13.7884   19.3306   34.1716 H   0  0  0  0  0  0
  1  6  1  0  0  0
  1  2  2  0  0  0
  1 33  1  0  0  0
  2  3  1  0  0  0
  2 34  1  0  0  0
  3  4  2  0  0  0
  3 19  1  0  0  0
  4  5  1  0  0  0
  4 35  1  0  0  0
  5  6  2  0  0  0
  5 36  1  0  0  0
  6  7  1  0  0  0
  7  8  2  0  0  0
  7  9  1  0  0  0
  9 10  1  0  0  0
  9 37  1  0  0  0
 10 11  1  0  0  0
 10 16  1  0  0  0
 10 38  1  0  0  0
 11 12  1  0  0  0
 11 39  1  0  0  0
 11 40  1  0  0  0
 12 13  1  0  0  0
 12 41  1  0  0  0
 12 42  1  0  0  0
 13 14  2  0  0  0
 13 15  1  0  0  0
 15 43  1  0  0  0
 16 17  2  0  0  0
 16 18  1  0  0  0
 18 44  1  0  0  0
 19 20  1  0  0  0
 19 45  1  0  0  0
 20 21  1  0  0  0
 20 46  1  0  0  0
 20 47  1  0  0  0
 21 26  1  0  0  0
 21 22  2  0  0  0
 22 23  1  0  0  0
 22 48  1  0  0  0
 23 24  2  0  0  0
 23 49  1  0  0  0
 24 30  1  0  0  0
 24 25  1  0  0  0
 25 26  2  0  0  0
 25 27  1  0  0  0
 27 28  2  0  0  0
 27 32  1  0  0  0
 28 29  1  0  0  0
 29 30  2  0  0  0
 29 31  1  0  0  0
 31 50  1  0  0  0
 31 51  1  0  0  0
 32 52  1  0  0  0
M  END
> <s_m_entry_id>
41736

> <s_m_entry_name>
ligand_docking-pose.96

> <s_m_Source_Path>
/home/csk/Desktop/cluster/DUD-E-result/tysy

> <s_m_Source_File>
ligand_docking-pose.sdf

> <i_m_Source_File_Index>
96

> <i_lp_mmshare_version>
53161

> <i_f3d_flags>
0

> <r_lp_tautomer_probability>
1

> <s_lp_Force_Field>
OPLS_2005

> <r_lp_Energy>
11.691164

> <b_lp_Chiralities_Consistent>
1

> <s_lp_Variant>
54814-2

> <s_i_glide_gridfile>
glide-grid_1syn

> <i_i_glide_lignum>
63

> <i_i_glide_rotatable_bonds>
13

> <r_i_docking_score>
-8.28851928978517

> <r_i_glide_ligand_efficiency>
-0.259016227805787

> <r_i_glide_ligand_efficiency_sa>
-0.822325264041494

> <r_i_glide_ligand_efficiency_ln>
-1.85602540548553

> <r_i_glide_gscore>
-8.28851928978517

> <r_i_glide_lipo>
-3.39894287786107

> <r_i_glide_hbond>
-0.297784260066353

> <r_i_glide_metal>
0

> <r_i_glide_rewards>
-0.993127516075011

> <r_i_glide_evdw>
-55.6302223205566

> <r_i_glide_ecoul>
-12.1440954208374

> <r_i_glide_erotb>
1.02940579757628

> <r_i_glide_esite>
-0.0249450042055804

> <r_i_glide_emodel>
-102.448102765098

> <r_i_glide_energy>
-67.774317741394

> <r_i_glide_einternal>
5.06761980056763

> <i_i_glide_confnum>
60

> <i_i_glide_posenum>
121

> <r_i_glide_eff_state_penalty>
0

> <s_user_duplicate_titles>
54814

> <s_m_subgroup_title>
dock_pv

> <s_m_subgroupid>
dock_pv1

> <b_m_subgroup_collapsed>
0

$$$$
558249
                    3D
 Schrodinger Suite 2021-1.
 58 60  0  0  1  0            999 V2000
   19.2752   10.6291   35.5341 C   0  0  0  0  0  0
   18.9921   11.5575   34.7920 C   0  0  0  0  0  0
   18.6132   12.6572   33.8757 C   0  0  0  0  0  0
   17.7198   13.6950   34.4369 N   0  0  0  0  0  0
   17.9384   15.0704   33.9494 C   0  0  0  0  0  0
   16.8459   15.5614   32.9977 C   0  0  0  0  0  0
   16.6891   14.9688   31.7365 C   0  0  0  0  0  0
   15.7188   15.4279   30.8432 C   0  0  0  0  0  0
   14.9084   16.5041   31.2192 C   0  0  0  0  0  0
   15.0626   17.1156   32.4656 C   0  0  0  0  0  0
   16.0287   16.6447   33.3499 C   0  0  0  0  0  0
   14.2825   18.2177   32.8513 N   0  0  0  0  0  0
   13.3916   18.6776   32.0560 C   0  0  0  0  0  0
   13.1769   18.0988   30.8431 N   0  0  0  0  0  0
   13.8388   17.0494   30.3052 C   0  0  0  0  0  0
   13.5538   16.6271   29.1914 O   0  0  0  0  0  0
   12.6230   19.8028   32.3910 N   0  0  0  0  0  0
   16.5911   13.3972   35.2603 C   0  0  0  0  0  0
   16.0933   12.0915   35.3844 C   0  0  0  0  0  0
   15.0561   11.7823   36.2483 C   0  0  0  0  0  0
   14.4604   12.7794   37.0190 C   0  0  0  0  0  0
   14.8962   14.1031   36.8581 C   0  0  0  0  0  0
   15.9457   14.4011   35.9917 C   0  0  0  0  0  0
   13.3974   12.3884   38.0186 C   0  0  0  0  0  0
   13.1851   11.2014   38.2769 O   0  0  0  0  0  0
   12.7217   13.3882   38.6141 N   0  0  0  0  0  0
   11.6749   13.2315   39.6372 C   0  0  2  0  0  0
   12.2588   12.6485   40.9579 C   0  0  0  0  0  0
   13.5339   13.3544   41.4751 C   0  0  0  0  0  0
   13.7916   13.0929   42.9576 C   0  0  0  0  0  0
   13.3875   13.8280   43.8527 O   0  0  0  0  0  0
   14.4839   11.9462   43.1910 O   0  0  0  0  0  0
   10.4296   12.4645   39.1256 C   0  0  0  0  0  0
    9.9197   11.5370   39.7166 O   0  0  0  0  0  0
    9.9818   13.0067   37.9556 O   0  0  0  0  0  0
   12.4710   18.4897   30.2407 H   0  0  0  0  0  0
   11.3169   14.2279   39.8742 H   0  0  0  0  0  0
   19.5094    9.8280   36.1940 H   0  0  0  0  0  0
   18.1609   12.2096   32.9912 H   0  0  0  0  0  0
   19.5551   13.0980   33.5461 H   0  0  0  0  0  0
   18.8779   15.1332   33.3995 H   0  0  0  0  0  0
   18.0685   15.7519   34.7897 H   0  0  0  0  0  0
   17.3227   14.1409   31.4505 H   0  0  0  0  0  0
   15.6053   14.9500   29.8790 H   0  0  0  0  0  0
   16.1317   17.1343   34.3039 H   0  0  0  0  0  0
   12.6749   20.1414   33.3481 H   0  0  0  0  0  0
   11.7004   19.9065   31.9989 H   0  0  0  0  0  0
   16.4813   11.2800   34.7915 H   0  0  0  0  0  0
   14.7308   10.7536   36.3196 H   0  0  0  0  0  0
   14.4736   14.9187   37.4263 H   0  0  0  0  0  0
   16.2739   15.4270   35.9489 H   0  0  0  0  0  0
   12.9561   14.3356   38.3607 H   0  0  0  0  0  0
   11.4790   12.6972   41.7140 H   0  0  0  0  0  0
   12.4890   11.5891   40.8247 H   0  0  0  0  0  0
   14.4018   13.0407   40.8964 H   0  0  0  0  0  0
   13.4394   14.4309   41.3418 H   0  0  0  0  0  0
   14.6537   11.8280   44.1394 H   0  0  0  0  0  0
   10.5591   13.6974   37.6275 H   0  0  0  0  0  0
  1  2  3  0  0  0
  1 38  1  0  0  0
  2  3  1  0  0  0
  3  4  1  0  0  0
  3 39  1  0  0  0
  3 40  1  0  0  0
  4  5  1  0  0  0
  4 18  1  0  0  0
  5  6  1  0  0  0
  5 41  1  0  0  0
  5 42  1  0  0  0
  6 11  1  0  0  0
  6  7  2  0  0  0
  7  8  1  0  0  0
  7 43  1  0  0  0
  8  9  2  0  0  0
  8 44  1  0  0  0
  9 15  1  0  0  0
  9 10  1  0  0  0
 10 11  2  0  0  0
 10 12  1  0  0  0
 11 45  1  0  0  0
 12 13  2  0  0  0
 13 14  1  0  0  0
 13 17  1  0  0  0
 14 36  1  0  0  0
 14 15  1  0  0  0
 15 16  2  0  0  0
 17 46  1  0  0  0
 17 47  1  0  0  0
 18 23  1  0  0  0
 18 19  2  0  0  0
 19 20  1  0  0  0
 19 48  1  0  0  0
 20 21  2  0  0  0
 20 49  1  0  0  0
 21 22  1  0  0  0
 21 24  1  0  0  0
 22 23  2  0  0  0
 22 50  1  0  0  0
 23 51  1  0  0  0
 24 25  2  0  0  0
 24 26  1  0  0  0
 26 27  1  0  0  0
 26 52  1  0  0  0
 27 37  1  0  0  0
 27 28  1  0  0  0
 27 33  1  0  0  0
 28 29  1  0  0  0
 28 53  1  0  0  0
 28 54  1  0  0  0
 29 30  1  0  0  0
 29 55  1  0  0  0
 29 56  1  0  0  0
 30 31  2  0  0  0
 30 32  1  0  0  0
 32 57  1  0  0  0
 33 34  2  0  0  0
 33 35  1  0  0  0
 35 58  1  0  0  0
M  END
> <s_m_entry_id>
41738

> <s_m_entry_name>
ligand_docking-pose.98

> <s_m_Source_Path>
/home/csk/Desktop/cluster/DUD-E-result/tysy

> <s_m_Source_File>
ligand_docking-pose.sdf

> <i_m_Source_File_Index>
98

> <i_lp_mmshare_version>
53161

> <i_f3d_flags>
0

> <r_lp_tautomer_probability>
1

> <s_lp_Force_Field>
OPLS_2005

> <r_lp_Energy>
21.691511

> <b_lp_Chiralities_Consistent>
1

> <s_lp_Variant>
558249-1

> <s_i_glide_gridfile>
glide-grid_1syn

> <i_i_glide_lignum>
831

> <i_i_glide_rotatable_bonds>
14

> <r_i_docking_score>
-8.27857376931829

> <r_i_glide_ligand_efficiency>
-0.23653067912338

> <r_i_glide_ligand_efficiency_sa>
-0.773707534889581

> <r_i_glide_ligand_efficiency_ln>
-1.8173306754109

> <r_i_glide_gscore>
-8.27857376931829

> <r_i_glide_lipo>
-3.49895539792031

> <r_i_glide_hbond>
-0.234128183961889

> <r_i_glide_metal>
0

> <r_i_glide_rewards>
-0.789717377884051

> <r_i_glide_evdw>
-57.9185600280762

> <r_i_glide_ecoul>
-12.7066860198975

> <r_i_glide_erotb>
1.06628412535036

> <r_i_glide_esite>
-0.0201260305139672

> <r_i_glide_emodel>
-106.929709495436

> <r_i_glide_energy>
-70.6252460479736

> <r_i_glide_einternal>
4.31969261169434

> <i_i_glide_confnum>
10

> <i_i_glide_posenum>
346

> <r_i_glide_eff_state_penalty>
0

> <s_user_duplicate_titles>
558249

> <s_m_subgroup_title>
dock_pv

> <s_m_subgroupid>
dock_pv1

> <b_m_subgroup_collapsed>
0

$$$$
183906
                    3D
 Schrodinger Suite 2021-1.
 66 68  0  0  1  0            999 V2000
   16.1752    3.8344   39.1396 C   0  0  0  0  0  0
   15.7559    4.2308   37.7146 C   0  0  0  0  0  0
   14.6462    5.1775   37.5911 N   0  0  0  0  0  0
   14.4425    6.3169   38.2755 C   0  0  0  0  0  0
   15.1521    6.6799   39.2107 O   0  0  0  0  0  0
   13.2543    7.1685   37.7973 C   0  0  0  0  0  0
   12.5261    8.0109   38.8765 C   0  0  0  0  0  0
   13.3256    9.1621   39.5617 C   0  0  2  0  0  0
   12.5186    9.8105   40.7160 C   0  0  0  0  0  0
   12.2273   10.9889   40.7806 O   0  0  0  0  0  0
   12.1920    8.8731   41.6529 O   0  0  0  0  0  0
   13.7409   10.1987   38.6114 N   0  0  0  0  0  0
   14.8993   10.2878   37.9331 C   0  0  0  0  0  0
   15.7827    9.4285   37.9911 O   0  0  0  0  0  0
   15.0860   11.5456   37.1031 C   0  0  0  0  0  0
   14.1580   12.5953   37.1299 C   0  0  0  0  0  0
   14.3679   13.7546   36.3926 C   0  0  0  0  0  0
   15.5111   13.9277   35.5918 C   0  0  0  0  0  0
   16.4438   12.8742   35.5907 C   0  0  0  0  0  0
   16.2326   11.7029   36.3187 C   0  0  0  0  0  0
   15.7094   15.1008   34.7918 N   0  0  0  0  0  0
   17.0581   15.4237   34.2795 C   0  0  0  0  0  0
   17.4699   14.6770   33.0744 C   0  0  0  0  0  0
   17.7927   14.0644   32.0688 C   0  0  0  0  0  0
   14.7555   16.2294   34.8746 C   0  0  0  0  0  0
   14.3913   16.9235   33.5606 C   0  0  0  0  0  0
   13.7468   18.1642   33.6399 C   0  0  0  0  0  0
   13.2854   18.8087   32.4923 C   0  0  0  0  0  0
   13.4913   18.2268   31.2470 C   0  0  0  0  0  0
   14.1590   17.0026   31.1530 C   0  0  0  0  0  0
   14.5898   16.3339   32.3020 C   0  0  0  0  0  0
   14.4029   16.4413   29.7725 C   0  0  0  0  0  0
   13.9303   17.2495   28.7939 N   0  0  0  0  0  0
   13.2557   18.4271   28.9540 C   0  0  0  0  0  0
   12.9922   18.8878   30.1156 N   0  0  0  0  0  0
   12.8409   19.1940   27.7301 C   0  0  0  0  0  0
   14.9737   15.3902   29.5063 O   0  0  0  0  0  0
   14.2223    8.7725   40.0414 H   0  0  0  0  0  0
   16.9550    3.0761   39.0959 H   0  0  0  0  0  0
   16.5879    4.6769   39.6924 H   0  0  0  0  0  0
   15.3368    3.4221   39.6987 H   0  0  0  0  0  0
   15.4406    3.3266   37.1898 H   0  0  0  0  0  0
   16.6138    4.6253   37.1691 H   0  0  0  0  0  0
   13.9927    4.9587   36.8495 H   0  0  0  0  0  0
   12.5203    6.4930   37.3548 H   0  0  0  0  0  0
   13.5782    7.8077   36.9748 H   0  0  0  0  0  0
   12.1228    7.3109   39.6093 H   0  0  0  0  0  0
   11.6440    8.4458   38.4003 H   0  0  0  0  0  0
   12.5161    7.9975   41.4290 H   0  0  0  0  0  0
   13.0842   10.9600   38.5215 H   0  0  0  0  0  0
   13.2599   12.5498   37.7274 H   0  0  0  0  0  0
   13.5973   14.4958   36.4942 H   0  0  0  0  0  0
   17.3503   12.9260   35.0133 H   0  0  0  0  0  0
   16.9835   10.9250   36.2722 H   0  0  0  0  0  0
   17.1174   16.4738   33.9909 H   0  0  0  0  0  0
   17.8131   15.2874   35.0552 H   0  0  0  0  0  0
   18.0864   13.5107   31.2032 H   0  0  0  0  0  0
   15.1366   16.9612   35.5884 H   0  0  0  0  0  0
   13.7836   15.9502   35.2587 H   0  0  0  0  0  0
   13.5649   18.6272   34.6012 H   0  0  0  0  0  0
   12.7748   19.7593   32.5732 H   0  0  0  0  0  0
   15.0469   15.3603   32.2118 H   0  0  0  0  0  0
   11.7920   19.4581   27.7944 H   0  0  0  0  0  0
   13.3920   20.1232   27.6539 H   0  0  0  0  0  0
   12.9921   18.6307   26.8127 H   0  0  0  0  0  0
   14.0966   16.9037   27.8637 H   0  0  0  0  0  0
  1  2  1  0  0  0
  1 39  1  0  0  0
  1 40  1  0  0  0
  1 41  1  0  0  0
  2  3  1  0  0  0
  2 42  1  0  0  0
  2 43  1  0  0  0
  3  4  1  0  0  0
  3 44  1  0  0  0
  4  5  2  0  0  0
  4  6  1  0  0  0
  6  7  1  0  0  0
  6 45  1  0  0  0
  6 46  1  0  0  0
  7  8  1  0  0  0
  7 47  1  0  0  0
  7 48  1  0  0  0
  8 38  1  0  0  0
  8  9  1  0  0  0
  8 12  1  0  0  0
  9 10  2  0  0  0
  9 11  1  0  0  0
 11 49  1  0  0  0
 12 13  1  0  0  0
 12 50  1  0  0  0
 13 14  2  0  0  0
 13 15  1  0  0  0
 15 20  1  0  0  0
 15 16  2  0  0  0
 16 17  1  0  0  0
 16 51  1  0  0  0
 17 18  2  0  0  0
 17 52  1  0  0  0
 18 19  1  0  0  0
 18 21  1  0  0  0
 19 20  2  0  0  0
 19 53  1  0  0  0
 20 54  1  0  0  0
 21 22  1  0  0  0
 21 25  1  0  0  0
 22 23  1  0  0  0
 22 55  1  0  0  0
 22 56  1  0  0  0
 23 24  3  0  0  0
 24 57  1  0  0  0
 25 58  1  0  0  0
 25 59  1  0  0  0
 25 26  1  0  0  0
 26 31  2  0  0  0
 26 27  1  0  0  0
 27 60  1  0  0  0
 27 28  2  0  0  0
 28 61  1  0  0  0
 28 29  1  0  0  0
 29 30  2  0  0  0
 29 35  1  0  0  0
 30 32  1  0  0  0
 30 31  1  0  0  0
 31 62  1  0  0  0
 32 37  2  0  0  0
 32 33  1  0  0  0
 33 34  1  0  0  0
 33 66  1  0  0  0
 34 35  2  0  0  0
 34 36  1  0  0  0
 36 63  1  0  0  0
 36 64  1  0  0  0
 36 65  1  0  0  0
M  END
> <s_m_entry_id>
41739

> <s_m_entry_name>
ligand_docking-pose.99

> <s_m_Source_Path>
/home/csk/Desktop/cluster/DUD-E-result/tysy

> <s_m_Source_File>
ligand_docking-pose.sdf

> <i_m_Source_File_Index>
99

> <i_lp_mmshare_version>
53161

> <i_f3d_flags>
0

> <r_lp_tautomer_probability>
0.883938

> <s_lp_Force_Field>
OPLS_2005

> <r_lp_Energy>
24.839788

> <b_lp_Chiralities_Consistent>
1

> <s_lp_Variant>
183906-1

> <s_i_glide_gridfile>
glide-grid_1syn

> <i_i_glide_lignum>
895

> <i_i_glide_rotatable_bonds>
15

> <r_i_docking_score>
-8.27703642664946

> <r_i_glide_ligand_efficiency>
-0.223703687206742

> <r_i_glide_ligand_efficiency_sa>
-0.745430313906848

> <r_i_glide_ligand_efficiency_ln>
-1.79509515967566

> <r_i_glide_gscore>
-8.27703642664946

> <r_i_glide_lipo>
-3.56734039794154

> <r_i_glide_hbond>
-0.472543080199335

> <r_i_glide_metal>
0

> <r_i_glide_rewards>
-0.932019318357501

> <r_i_glide_evdw>
-58.4176292419434

> <r_i_glide_ecoul>
-9.19719791412354

> <r_i_glide_erotb>
1.0479827158917

> <r_i_glide_esite>
-0.0526551968270845

> <r_i_glide_emodel>
-97.2433921679393

> <r_i_glide_energy>
-67.6148271560669

> <r_i_glide_einternal>
4.68129825592041

> <i_i_glide_confnum>
23

> <i_i_glide_posenum>
97

> <r_i_glide_eff_state_penalty>
0

> <s_user_duplicate_titles>
183906

> <s_m_subgroup_title>
dock_pv

> <s_m_subgroupid>
dock_pv1

> <b_m_subgroup_collapsed>
0

$$$$
3918
                    3D
 Schrodinger Suite 2021-1.
 30 31  0  0  1  0            999 V2000
   16.3462   15.0278   34.3480 C   0  0  0  0  0  0
   16.9686   14.0907   35.0910 C   0  0  0  0  0  0
   17.9848   13.2540   34.4676 C   0  0  0  0  0  0
   18.5907   12.3515   35.0404 O   0  0  0  0  0  0
   18.1979   13.5616   33.1547 N   0  0  0  0  0  0
   17.5937   14.5063   32.3655 C   0  0  0  0  0  0
   17.9289   14.6276   31.1877 O   0  0  0  0  0  0
   16.6207   15.2484   33.0151 N   0  0  0  0  0  0
   15.9211   16.2732   32.2450 C   0  0  1  0  0  0
   15.0321   15.8274   31.0904 C   0  0  0  0  0  0
   14.2514   17.1062   30.8140 C   0  0  2  0  0  0
   14.3222   17.9019   32.1343 C   0  0  2  0  0  0
   15.0633   17.0602   33.0078 O   0  0  0  0  0  0
   13.0617   18.1307   32.7326 O   0  0  0  0  0  0
   12.1525   19.4280   32.3553 P   0  0  0  0  0  0
   10.9913   19.6386   33.2460 O   0  0  0  0  0  0
   13.1755   20.6627   32.3911 O   0  0  0  0  0  0
   11.7920   19.2278   30.7832 O   0  0  0  0  0  0
   12.9543   16.8206   30.3250 O   0  0  0  0  0  0
   16.6560   13.8993   36.3907 F   0  0  0  0  0  0
   18.9062   13.0061   32.6899 H   0  0  0  0  0  0
   15.5755   15.6609   34.7625 H   0  0  0  0  0  0
   16.7281   16.9186   31.9025 H   0  0  0  0  0  0
   15.6143   15.4787   30.2364 H   0  0  0  0  0  0
   14.3786   15.0280   31.4393 H   0  0  0  0  0  0
   14.7844   17.6804   30.0540 H   0  0  0  0  0  0
   14.8467   18.8473   32.0098 H   0  0  0  0  0  0
   13.2148   21.0279   33.3079 H   0  0  0  0  0  0
   10.8458   19.4280   30.5480 H   0  0  0  0  0  0
   12.4479   17.6456   30.3362 H   0  0  0  0  0  0
  1  8  1  0  0  0
  1  2  2  0  0  0
  1 22  1  0  0  0
  2  3  1  0  0  0
  2 20  1  0  0  0
  3  4  2  0  0  0
  3  5  1  0  0  0
  5 21  1  0  0  0
  5  6  1  0  0  0
  6  7  2  0  0  0
  6  8  1  0  0  0
  8  9  1  0  0  0
  9 13  1  0  0  0
  9 10  1  0  0  0
  9 23  1  0  0  0
 10 11  1  0  0  0
 10 24  1  0  0  0
 10 25  1  0  0  0
 11 12  1  0  0  0
 11 19  1  0  0  0
 11 26  1  0  0  0
 12 13  1  0  0  0
 12 14  1  0  0  0
 12 27  1  0  0  0
 14 15  1  0  0  0
 15 16  2  0  0  0
 15 17  1  0  0  0
 15 18  1  0  0  0
 17 28  1  0  0  0
 18 29  1  0  0  0
 19 30  1  0  0  0
M  END
> <s_m_entry_id>
41741

> <s_m_entry_name>
ligand_docking-pose.101

> <s_m_Source_Path>
/home/csk/Desktop/cluster/DUD-E-result/tysy

> <s_m_Source_File>
ligand_docking-pose.sdf

> <i_m_Source_File_Index>
101

> <i_lp_mmshare_version>
53161

> <i_f3d_flags>
0

> <r_lp_tautomer_probability>
0.999537046341301

> <s_lp_Force_Field>
OPLS_2005

> <r_lp_Energy>
21.381438

> <b_lp_Chiralities_Consistent>
1

> <s_lp_Variant>
3918-8

> <s_i_glide_gridfile>
glide-grid_1syn

> <i_i_glide_lignum>
153

> <i_i_glide_rotatable_bonds>
6

> <r_i_docking_score>
-8.24799497260718

> <r_i_glide_ligand_efficiency>
-0.412399748630359

> <r_i_glide_ligand_efficiency_sa>
-1.11942514164373

> <r_i_glide_ligand_efficiency_ln>
-2.06420110456275

> <r_i_glide_gscore>
-8.24799497260718

> <r_i_glide_lipo>
-1.14240788795333

> <r_i_glide_hbond>
-0.267673626032792

> <r_i_glide_metal>
0

> <r_i_glide_rewards>
-3.24638709946753

> <r_i_glide_evdw>
-30.8806991577148

> <r_i_glide_ecoul>
-17.0855007171631

> <r_i_glide_erotb>
0.571319510325736

> <r_i_glide_esite>
-0.0559858040190687

> <r_i_glide_emodel>
-70.6297309658627

> <r_i_glide_energy>
-47.9661998748779

> <r_i_glide_einternal>
6.6487889289856

> <i_i_glide_confnum>
18

> <i_i_glide_posenum>
8

> <r_i_glide_eff_state_penalty>
0

> <s_user_duplicate_titles>
3918

> <s_m_subgroup_title>
dock_pv

> <s_m_subgroupid>
dock_pv1

> <b_m_subgroup_collapsed>
0

$$$$
212468
                    3D
 Schrodinger Suite 2021-1.
 38 39  0  0  1  0            999 V2000
   15.7278   15.6020   33.0312 C   0  0  0  0  0  0
   16.3148   15.0280   34.1074 C   0  0  0  0  0  0
   17.5848   14.3267   33.9098 C   0  0  0  0  0  0
   18.2683   13.8072   34.7910 O   0  0  0  0  0  0
   17.9716   14.2738   32.6053 N   0  0  0  0  0  0
   17.3743   14.8022   31.4957 C   0  0  0  0  0  0
   17.8716   14.6296   30.3910 O   0  0  0  0  0  0
   16.2205   15.5153   31.7451 N   0  0  0  0  0  0
   15.5407   16.1285   30.5952 C   0  0  1  0  0  0
   14.7291   15.2305   29.6570 C   0  0  0  0  0  0
   13.3787   15.2850   30.3429 C   0  0  1  0  0  0
   13.2875   16.6960   30.9137 C   0  0  1  0  0  0
   14.6475   17.1213   30.9878 O   0  0  0  0  0  0
   12.5638   17.7949   30.1052 C   0  0  0  0  0  0
   12.7931   19.0994   30.6447 O   0  0  0  0  0  0
   12.5920   19.4280   32.2324 P   0  0  0  0  0  0
   13.3255   18.5708   33.2012 O   0  0  0  0  0  0
   12.9175   20.9940   32.3910 O   0  0  0  0  0  0
   10.9920   19.4300   32.3910 O   0  0  0  0  0  0
   12.2808   14.8275   29.5910 O   0  0  0  0  0  0
   15.6088   14.9492   35.3504 C   0  0  0  0  0  0
   14.9857   14.6626   36.3614 C   0  0  0  0  0  0
   14.2583   14.2235   37.5607 C   0  0  0  0  0  0
   13.0130   13.8280   37.2992 F   0  0  0  0  0  0
   18.8255   13.7625   32.4276 H   0  0  0  0  0  0
   14.7737   16.1052   33.0951 H   0  0  0  0  0  0
   16.3376   16.6219   30.0373 H   0  0  0  0  0  0
   14.6941   15.6873   28.6663 H   0  0  0  0  0  0
   15.1547   14.2287   29.5775 H   0  0  0  0  0  0
   13.4385   14.6280   31.1910 H   0  0  0  0  0  0
   12.8401   16.6225   31.9028 H   0  0  0  0  0  0
   12.9071   17.7908   29.0702 H   0  0  0  0  0  0
   11.4913   17.5978   30.0730 H   0  0  0  0  0  0
   12.9920   21.2101   33.3521 H   0  0  0  0  0  0
   10.5132   19.6816   31.5648 H   0  0  0  0  0  0
   12.3081   13.8600   29.5910 H   0  0  0  0  0  0
   14.2064   15.0280   38.2921 H   0  0  0  0  0  0
   14.7870   13.3795   38.0026 H   0  0  0  0  0  0
  1  8  1  0  0  0
  1  2  2  0  0  0
  1 26  1  0  0  0
  2  3  1  0  0  0
  2 21  1  0  0  0
  3  4  2  0  0  0
  3  5  1  0  0  0
  5 25  1  0  0  0
  5  6  1  0  0  0
  6  7  2  0  0  0
  6  8  1  0  0  0
  8  9  1  0  0  0
  9 13  1  0  0  0
  9 10  1  0  0  0
  9 27  1  0  0  0
 10 11  1  0  0  0
 10 28  1  0  0  0
 10 29  1  0  0  0
 11 12  1  0  0  0
 11 20  1  0  0  0
 11 30  1  0  0  0
 12 13  1  0  0  0
 12 14  1  0  0  0
 12 31  1  0  0  0
 14 15  1  0  0  0
 14 32  1  0  0  0
 14 33  1  0  0  0
 15 16  1  0  0  0
 16 17  2  0  0  0
 16 18  1  0  0  0
 16 19  1  0  0  0
 18 34  1  0  0  0
 19 35  1  0  0  0
 20 36  1  0  0  0
 21 22  3  0  0  0
 22 23  1  0  0  0
 23 24  1  0  0  0
 23 37  1  0  0  0
 23 38  1  0  0  0
M  END
> <s_m_entry_id>
41745

> <s_m_entry_name>
ligand_docking-pose.105

> <s_m_Source_Path>
/home/csk/Desktop/cluster/DUD-E-result/tysy

> <s_m_Source_File>
ligand_docking-pose.sdf

> <i_m_Source_File_Index>
105

> <i_lp_mmshare_version>
53161

> <i_f3d_flags>
0

> <r_lp_tautomer_probability>
1

> <s_lp_Force_Field>
OPLS_2005

> <r_lp_Energy>
19.075303

> <b_lp_Chiralities_Consistent>
1

> <s_lp_Variant>
212468-2

> <s_i_glide_gridfile>
glide-grid_1syn

> <i_i_glide_lignum>
115

> <i_i_glide_rotatable_bonds>
9

> <r_i_docking_score>
-8.20124847382383

> <r_i_glide_ligand_efficiency>
-0.341718686409326

> <r_i_glide_ligand_efficiency_sa>
-0.985687256235537

> <r_i_glide_ligand_efficiency_ln>
-1.96293509055647

> <r_i_glide_gscore>
-8.20124847382383

> <r_i_glide_lipo>
-1.88558291318002

> <r_i_glide_hbond>
-0.64

> <r_i_glide_metal>
0

> <r_i_glide_rewards>
-2.2122231895547

> <r_i_glide_evdw>
-32.9302787780762

> <r_i_glide_ecoul>
-17.9089813232422

> <r_i_glide_erotb>
0.869418766301021

> <r_i_glide_esite>
0

> <r_i_glide_emodel>
-71.9420019038093

> <r_i_glide_energy>
-50.8392601013184

> <r_i_glide_einternal>
4.18415832519531

> <i_i_glide_confnum>
130

> <i_i_glide_posenum>
374

> <r_i_glide_eff_state_penalty>
0

> <s_user_duplicate_titles>
212468

> <s_m_subgroup_title>
dock_pv

> <s_m_subgroupid>
dock_pv1

> <b_m_subgroup_collapsed>
0

$$$$
16149
                    3D
 Schrodinger Suite 2021-1.
 33 34  0  0  1  0            999 V2000
   15.4820   15.6816   31.5642 C   0  0  0  0  0  0
   15.0191   15.9187   30.3195 C   0  0  0  0  0  0
   14.1920   17.0946   30.0907 C   0  0  0  0  0  0
   13.7216   17.4280   29.0061 O   0  0  0  0  0  0
   13.9856   17.8280   31.2218 N   0  0  0  0  0  0
   14.4327   17.6212   32.5002 C   0  0  0  0  0  0
   14.1468   18.4189   33.3915 O   0  0  0  0  0  0
   15.1999   16.4819   32.6512 N   0  0  0  0  0  0
   15.6860   16.1635   33.9914 C   0  0  1  0  0  0
   14.6650   15.7726   35.0592 C   0  0  0  0  0  0
   15.3917   14.6921   35.8680 C   0  0  2  0  0  0
   16.8158   14.6044   35.2866 C   0  0  2  0  0  0
   16.6445   15.1533   33.9905 O   0  0  0  0  0  0
   17.4488   13.1932   35.1325 C   0  0  0  0  0  0
   18.8477   13.1409   34.8193 O   0  0  0  0  0  0
   19.6184   14.2494   33.9004 P   0  0  0  0  0  0
   19.3651   15.6666   34.2674 O   0  0  0  0  0  0
   21.1809   13.8280   33.9910 O   0  0  0  0  0  0
   19.2103   13.8280   32.3910 O   0  0  0  0  0  0
   14.6545   13.4829   35.8946 O   0  0  0  0  0  0
   15.3920   14.8398   28.9696 Cl  0  0  0  0  0  0
   13.4302   18.6605   31.0930 H   0  0  0  0  0  0
   16.1118   14.8317   31.7854 H   0  0  0  0  0  0
   16.1920   17.0811   34.2969 H   0  0  0  0  0  0
   13.7453   15.4280   34.5926 H   0  0  0  0  0  0
   14.4225   16.6521   35.6564 H   0  0  0  0  0  0
   15.4656   15.0280   36.8994 H   0  0  0  0  0  0
   17.4820   15.2269   35.8859 H   0  0  0  0  0  0
   16.8984   12.6153   34.3910 H   0  0  0  0  0  0
   17.3439   12.6513   36.0723 H   0  0  0  0  0  0
   21.3920   12.9144   33.6180 H   0  0  0  0  0  0
   19.6139   12.9899   32.0420 H   0  0  0  0  0  0
   15.1363   12.8357   36.4141 H   0  0  0  0  0  0
  1  8  1  0  0  0
  1  2  2  0  0  0
  1 23  1  0  0  0
  2  3  1  0  0  0
  2 21  1  0  0  0
  3  4  2  0  0  0
  3  5  1  0  0  0
  5 22  1  0  0  0
  5  6  1  0  0  0
  6  7  2  0  0  0
  6  8  1  0  0  0
  8  9  1  0  0  0
  9 13  1  0  0  0
  9 10  1  0  0  0
  9 24  1  0  0  0
 10 11  1  0  0  0
 10 25  1  0  0  0
 10 26  1  0  0  0
 11 12  1  0  0  0
 11 20  1  0  0  0
 11 27  1  0  0  0
 12 13  1  0  0  0
 12 14  1  0  0  0
 12 28  1  0  0  0
 14 15  1  0  0  0
 14 29  1  0  0  0
 14 30  1  0  0  0
 15 16  1  0  0  0
 16 17  2  0  0  0
 16 18  1  0  0  0
 16 19  1  0  0  0
 18 31  1  0  0  0
 19 32  1  0  0  0
 20 33  1  0  0  0
M  END
> <s_m_entry_id>
41746

> <s_m_entry_name>
ligand_docking-pose.106

> <s_m_Source_Path>
/home/csk/Desktop/cluster/DUD-E-result/tysy

> <s_m_Source_File>
ligand_docking-pose.sdf

> <i_m_Source_File_Index>
106

> <i_lp_mmshare_version>
53161

> <i_f3d_flags>
0

> <r_lp_tautomer_probability>
0.999537046341301

> <s_lp_Force_Field>
OPLS_2005

> <r_lp_Energy>
17.981386

> <b_lp_Chiralities_Consistent>
1

> <s_lp_Variant>
16149-8

> <s_i_glide_gridfile>
glide-grid_1syn

> <i_i_glide_lignum>
129

> <i_i_glide_rotatable_bonds>
7

> <r_i_docking_score>
-8.20049881639683

> <r_i_glide_ligand_efficiency>
-0.390499943637944

> <r_i_glide_ligand_efficiency_sa>
-1.07735973428484

> <r_i_glide_ligand_efficiency_ln>
-2.02755676168599

> <r_i_glide_gscore>
-8.20049881639683

> <r_i_glide_lipo>
-2.19566246933967

> <r_i_glide_hbond>
-0.0192348975925526

> <r_i_glide_metal>
0

> <r_i_glide_rewards>
-2.41069223765424

> <r_i_glide_evdw>
-33.2496147155762

> <r_i_glide_ecoul>
-16.5695514678955

> <r_i_glide_erotb>
0.64620066330233

> <r_i_glide_esite>
-0.0731964191495601

> <r_i_glide_emodel>
-76.5490644169108

> <r_i_glide_energy>
-49.8191661834717

> <r_i_glide_einternal>
4.94446992874146

> <i_i_glide_confnum>
85

> <i_i_glide_posenum>
56

> <r_i_glide_eff_state_penalty>
0

> <s_user_duplicate_titles>
16149

> <s_m_subgroup_title>
dock_pv

> <s_m_subgroupid>
dock_pv1

> <b_m_subgroup_collapsed>
0

$$$$
152010
                    3D
 Schrodinger Suite 2021-1.
 61 63  0  0  1  0            999 V2000
   13.7558   18.2280   33.9704 C   0  0  0  0  0  0
   13.9869   17.7379   32.5504 C   0  0  0  0  0  0
   13.1704   18.1887   31.5140 C   0  0  0  0  0  0
   13.3788   17.7015   30.2310 C   0  0  0  0  0  0
   14.3252   16.7858   29.9207 N   0  0  0  0  0  0
   15.1437   16.3392   30.9140 C   0  0  0  0  0  0
   15.0340   16.8139   32.2581 C   0  0  0  0  0  0
   15.9727   16.3566   33.2176 C   0  0  0  0  0  0
   16.9633   15.4383   32.8704 C   0  0  0  0  0  0
   17.0372   14.9545   31.5652 C   0  0  0  0  0  0
   16.1456   15.3944   30.5880 C   0  0  0  0  0  0
   17.9910   15.0060   33.9089 C   0  0  0  0  0  0
   17.7403   13.6441   34.4075 N   0  0  0  0  0  0
   18.6206   12.5932   33.8562 C   0  0  0  0  0  0
   18.9925   11.5088   34.7909 C   0  0  0  0  0  0
   19.3030   10.6275   35.5758 C   0  0  0  0  0  0
   16.6186   13.3784   35.2501 C   0  0  0  0  0  0
   16.0042   14.3986   35.9890 C   0  0  0  0  0  0
   14.9924   14.1162   36.8991 C   0  0  0  0  0  0
   14.5975   12.7913   37.1248 C   0  0  0  0  0  0
   15.1287   11.7805   36.3279 C   0  0  0  0  0  0
   16.1061   12.0799   35.3950 C   0  0  0  0  0  0
   13.7141   12.4179   38.2801 C   0  0  0  0  0  0
   13.7998   11.3011   38.7953 O   0  0  0  0  0  0
   12.8878   13.3780   38.7303 N   0  0  0  0  0  0
   12.0772   13.2990   39.9496 C   0  0  1  0  0  0
   11.0535   12.1235   39.8840 C   0  0  0  0  0  0
    9.9996   12.2377   38.7571 C   0  0  0  0  0  0
    9.0694   13.4329   38.9503 C   0  0  0  0  0  0
    8.9907   14.0834   39.9910 O   0  0  0  0  0  0
    8.3717   13.7521   37.8291 O   0  0  0  0  0  0
   12.9502   13.3189   41.2262 C   0  0  0  0  0  0
   12.8514   12.5258   42.1379 O   0  0  0  0  0  0
   13.7918   14.3948   41.1922 O   0  0  0  0  0  0
   12.5921   18.1675   29.1912 N   0  0  0  0  0  0
   11.5136   14.2280   40.0040 H   0  0  0  0  0  0
   14.5376   18.9276   34.2677 H   0  0  0  0  0  0
   13.7417   17.3970   34.6761 H   0  0  0  0  0  0
   12.7902   18.7268   34.0508 H   0  0  0  0  0  0
   12.3869   18.9088   31.7044 H   0  0  0  0  0  0
   15.9211   16.7410   34.2231 H   0  0  0  0  0  0
   17.8079   14.2461   31.2953 H   0  0  0  0  0  0
   16.2245   15.0277   29.5743 H   0  0  0  0  0  0
   18.9706   15.0659   33.4271 H   0  0  0  0  0  0
   18.0540   15.7192   34.7316 H   0  0  0  0  0  0
   18.1782   12.1372   32.9728 H   0  0  0  0  0  0
   19.5666   13.0257   33.5306 H   0  0  0  0  0  0
   19.5823    9.8442   36.2419 H   0  0  0  0  0  0
   16.3396   15.4215   35.9330 H   0  0  0  0  0  0
   14.5977   14.9316   37.4886 H   0  0  0  0  0  0
   14.8210   10.7509   36.4497 H   0  0  0  0  0  0
   16.4656   11.2635   34.7940 H   0  0  0  0  0  0
   12.7834   14.2107   38.1718 H   0  0  0  0  0  0
   11.5558   11.1599   39.7942 H   0  0  0  0  0  0
   10.5232   12.0564   40.8264 H   0  0  0  0  0  0
   10.4906   12.3130   37.7851 H   0  0  0  0  0  0
    9.3864   11.3364   38.7245 H   0  0  0  0  0  0
    7.8607   14.5526   37.9888 H   0  0  0  0  0  0
   13.7758   14.8036   40.3243 H   0  0  0  0  0  0
   11.8612   18.8434   29.3697 H   0  0  0  0  0  0
   12.7714   17.8233   28.2601 H   0  0  0  0  0  0
  1  2  1  0  0  0
  1 37  1  0  0  0
  1 38  1  0  0  0
  1 39  1  0  0  0
  2  7  1  0  0  0
  2  3  2  0  0  0
  3  4  1  0  0  0
  3 40  1  0  0  0
  4  5  2  0  0  0
  4 35  1  0  0  0
  5  6  1  0  0  0
  6 11  2  0  0  0
  6  7  1  0  0  0
  7  8  2  0  0  0
  8  9  1  0  0  0
  8 41  1  0  0  0
  9 10  2  0  0  0
  9 12  1  0  0  0
 10 11  1  0  0  0
 10 42  1  0  0  0
 11 43  1  0  0  0
 12 13  1  0  0  0
 12 44  1  0  0  0
 12 45  1  0  0  0
 13 14  1  0  0  0
 13 17  1  0  0  0
 14 15  1  0  0  0
 14 46  1  0  0  0
 14 47  1  0  0  0
 15 16  3  0  0  0
 16 48  1  0  0  0
 17 22  1  0  0  0
 17 18  2  0  0  0
 18 19  1  0  0  0
 18 49  1  0  0  0
 19 20  2  0  0  0
 19 50  1  0  0  0
 20 21  1  0  0  0
 20 23  1  0  0  0
 21 22  2  0  0  0
 21 51  1  0  0  0
 22 52  1  0  0  0
 23 24  2  0  0  0
 23 25  1  0  0  0
 25 26  1  0  0  0
 25 53  1  0  0  0
 26 36  1  0  0  0
 26 27  1  0  0  0
 26 32  1  0  0  0
 27 28  1  0  0  0
 27 54  1  0  0  0
 27 55  1  0  0  0
 28 29  1  0  0  0
 28 56  1  0  0  0
 28 57  1  0  0  0
 29 30  2  0  0  0
 29 31  1  0  0  0
 31 58  1  0  0  0
 32 33  2  0  0  0
 32 34  1  0  0  0
 34 59  1  0  0  0
 35 60  1  0  0  0
 35 61  1  0  0  0
M  END
> <s_m_entry_id>
41747

> <s_m_entry_name>
ligand_docking-pose.107

> <s_m_Source_Path>
/home/csk/Desktop/cluster/DUD-E-result/tysy

> <s_m_Source_File>
ligand_docking-pose.sdf

> <i_m_Source_File_Index>
107

> <i_lp_mmshare_version>
53161

> <i_f3d_flags>
0

> <r_lp_tautomer_probability>
1

> <s_lp_Force_Field>
OPLS_2005

> <r_lp_Energy>
15.622034

> <b_lp_Chiralities_Consistent>
1

> <s_lp_Variant>
152010-1

> <s_i_glide_gridfile>
glide-grid_1syn

> <i_i_glide_lignum>
454

> <i_i_glide_rotatable_bonds>
14

> <r_i_docking_score>
-8.19948563764022

> <r_i_glide_ligand_efficiency>
-0.234271018218292

> <r_i_glide_ligand_efficiency_sa>
-0.766316034239258

> <r_i_glide_ligand_efficiency_ln>
-1.79996907524105

> <r_i_glide_gscore>
-8.19948563764022

> <r_i_glide_lipo>
-3.90087990744325

> <r_i_glide_hbond>
-0.283903576204969

> <r_i_glide_metal>
0

> <r_i_glide_rewards>
-0.773646415091296

> <r_i_glide_evdw>
-55.4613571166992

> <r_i_glide_ecoul>
-9.91555118560791

> <r_i_glide_erotb>
1.07846728551554

> <r_i_glide_esite>
-0.059122490740092

> <r_i_glide_emodel>
-97.9655077067641

> <r_i_glide_energy>
-65.3769083023071

> <r_i_glide_einternal>
6.11460208892822

> <i_i_glide_confnum>
52

> <i_i_glide_posenum>
317

> <r_i_glide_eff_state_penalty>
0

> <s_user_duplicate_titles>
152010

> <s_m_subgroup_title>
dock_pv

> <s_m_subgroupid>
dock_pv1

> <b_m_subgroup_collapsed>
0

$$$$
281876
                    3D
 Schrodinger Suite 2021-1.
 73 75  0  0  1  0            999 V2000
   12.1905   17.7499   29.3312 C   0  0  0  0  0  0
   13.2385   17.4917   30.3815 C   0  0  0  0  0  0
   14.1780   16.5158   30.1032 N   0  0  0  0  0  0
   15.1765   16.2219   31.0354 C   0  0  0  0  0  0
   16.1514   15.2566   30.7815 C   0  0  0  0  0  0
   17.1539   15.0282   31.7264 C   0  0  0  0  0  0
   17.1864   15.7681   32.9179 C   0  0  0  0  0  0
   16.1957   16.7201   33.1713 C   0  0  0  0  0  0
   15.1899   16.9482   32.2308 C   0  0  0  0  0  0
   14.1282   18.0008   32.4908 C   0  0  0  0  0  0
   13.1961   18.1748   31.4588 N   0  0  0  0  0  0
   14.1463   18.6206   33.5451 O   0  0  0  0  0  0
   18.3311   15.6091   33.9123 C   0  0  0  0  0  0
   18.5558   14.2224   34.3121 N   0  0  0  0  0  0
   19.8564   13.6536   33.9706 C   0  0  0  0  0  0
   17.5912   13.4844   35.0475 C   0  0  0  0  0  0
   17.7477   12.1142   35.2851 C   0  0  0  0  0  0
   16.7656   11.3781   35.9479 C   0  0  0  0  0  0
   15.5893   11.9941   36.3921 C   0  0  0  0  0  0
   15.4396   13.3729   36.2007 C   0  0  0  0  0  0
   16.4330   14.1002   35.5493 C   0  0  0  0  0  0
   14.3239   14.0241   36.6077 F   0  0  0  0  0  0
   14.4749   11.1734   36.9958 C   0  0  0  0  0  0
   13.7836   11.5950   37.9200 O   0  0  0  0  0  0
   14.3049    9.9752   36.4147 N   0  0  0  0  0  0
   13.2485    9.0010   36.6947 C   0  0  1  0  0  0
   12.0849    9.1797   35.6724 C   0  0  0  0  0  0
   10.7823    9.7471   36.2847 C   0  0  0  0  0  0
   10.0887   10.7881   35.4019 C   0  0  0  0  0  0
   10.5568   11.9207   35.3187 O   0  0  0  0  0  0
    8.9573   10.4023   34.7848 N   0  0  0  0  0  0
    8.0206   11.2708   34.0498 C   0  0  2  0  0  0
    8.6925   11.9008   32.7942 C   0  0  0  0  0  0
    9.3367   10.8831   31.8321 C   0  0  0  0  0  0
    9.7914   11.5465   30.5274 C   0  0  0  0  0  0
    9.7911   12.7578   30.3274 O   0  0  0  0  0  0
   10.1918   10.6303   29.5966 O   0  0  0  0  0  0
    7.3155   12.2984   34.9802 C   0  0  0  0  0  0
    7.2923   12.2089   36.1960 O   0  0  0  0  0  0
    6.6694   13.2611   34.2573 O   0  0  0  0  0  0
   13.8739    7.5881   36.8071 C   0  0  0  0  0  0
   14.9928    7.3916   37.2420 O   0  0  0  0  0  0
   13.0120    6.5968   36.4286 O   0  0  0  0  0  0
   12.8780    9.1844   37.7053 H   0  0  0  0  0  0
    7.2232   10.6103   33.7012 H   0  0  0  0  0  0
   11.5414   18.5851   29.5928 H   0  0  0  0  0  0
   12.6580   17.9898   28.3775 H   0  0  0  0  0  0
   11.5586   16.8757   29.2058 H   0  0  0  0  0  0
   16.1397   14.6924   29.8630 H   0  0  0  0  0  0
   17.9244   14.2989   31.5254 H   0  0  0  0  0  0
   16.2189   17.3015   34.0777 H   0  0  0  0  0  0
   14.1667   16.0225   29.2283 H   0  0  0  0  0  0
   18.1893   16.2183   34.7948 H   0  0  0  0  0  0
   19.2290   16.0111   33.4508 H   0  0  0  0  0  0
   19.7687   12.6391   33.5916 H   0  0  0  0  0  0
   20.3730   14.2250   33.1992 H   0  0  0  0  0  0
   20.5179   13.6077   34.8327 H   0  0  0  0  0  0
   18.6223   11.5819   34.9446 H   0  0  0  0  0  0
   16.9335   10.3217   36.0869 H   0  0  0  0  0  0
   16.2614   15.1548   35.4217 H   0  0  0  0  0  0
   14.9453    9.7210   35.6805 H   0  0  0  0  0  0
   11.8213    8.2473   35.1909 H   0  0  0  0  0  0
   12.4142    9.7847   34.8233 H   0  0  0  0  0  0
   10.9799   10.2343   37.2430 H   0  0  0  0  0  0
   10.1006    8.9283   36.5329 H   0  0  0  0  0  0
    8.6442    9.4500   34.9052 H   0  0  0  0  0  0
    9.4504   12.6232   33.0994 H   0  0  0  0  0  0
    7.9539   12.4698   32.2301 H   0  0  0  0  0  0
    8.6219   10.1066   31.5828 H   0  0  0  0  0  0
   10.1888   10.3932   32.2996 H   0  0  0  0  0  0
   10.2774    9.7346   29.9629 H   0  0  0  0  0  0
    6.8235   13.1811   33.3135 H   0  0  0  0  0  0
   12.1727    6.9248   36.0944 H   0  0  0  0  0  0
  1 46  1  0  0  0
  1 47  1  0  0  0
  1 48  1  0  0  0
  1  2  1  0  0  0
  2  3  1  0  0  0
  2 11  2  0  0  0
  3  4  1  0  0  0
  3 52  1  0  0  0
  4  9  2  0  0  0
  4  5  1  0  0  0
  5  6  2  0  0  0
  5 49  1  0  0  0
  6  7  1  0  0  0
  6 50  1  0  0  0
  7  8  2  0  0  0
  7 13  1  0  0  0
  8  9  1  0  0  0
  8 51  1  0  0  0
  9 10  1  0  0  0
 10 12  2  0  0  0
 10 11  1  0  0  0
 13 14  1  0  0  0
 13 53  1  0  0  0
 13 54  1  0  0  0
 14 15  1  0  0  0
 14 16  1  0  0  0
 15 55  1  0  0  0
 15 56  1  0  0  0
 15 57  1  0  0  0
 16 21  1  0  0  0
 16 17  2  0  0  0
 17 18  1  0  0  0
 17 58  1  0  0  0
 18 19  2  0  0  0
 18 59  1  0  0  0
 19 20  1  0  0  0
 19 23  1  0  0  0
 20 21  2  0  0  0
 20 22  1  0  0  0
 21 60  1  0  0  0
 23 24  2  0  0  0
 23 25  1  0  0  0
 25 26  1  0  0  0
 25 61  1  0  0  0
 26 44  1  0  0  0
 26 27  1  0  0  0
 26 41  1  0  0  0
 27 28  1  0  0  0
 27 62  1  0  0  0
 27 63  1  0  0  0
 28 29  1  0  0  0
 28 64  1  0  0  0
 28 65  1  0  0  0
 29 30  2  0  0  0
 29 31  1  0  0  0
 31 32  1  0  0  0
 31 66  1  0  0  0
 32 45  1  0  0  0
 32 33  1  0  0  0
 32 38  1  0  0  0
 33 34  1  0  0  0
 33 67  1  0  0  0
 33 68  1  0  0  0
 34 35  1  0  0  0
 34 69  1  0  0  0
 34 70  1  0  0  0
 35 36  2  0  0  0
 35 37  1  0  0  0
 37 71  1  0  0  0
 38 39  2  0  0  0
 38 40  1  0  0  0
 40 72  1  0  0  0
 41 42  2  0  0  0
 41 43  1  0  0  0
 43 73  1  0  0  0
M  END
> <s_m_entry_id>
41749

> <s_m_entry_name>
ligand_docking-pose.109

> <s_m_Source_Path>
/home/csk/Desktop/cluster/DUD-E-result/tysy

> <s_m_Source_File>
ligand_docking-pose.sdf

> <i_m_Source_File_Index>
109

> <i_lp_mmshare_version>
53161

> <i_f3d_flags>
0

> <r_lp_tautomer_probability>
0.116051

> <s_lp_Force_Field>
OPLS_2005

> <r_lp_Energy>
21.820085

> <b_lp_Chiralities_Consistent>
1

> <s_lp_Variant>
281876-2

> <s_i_glide_gridfile>
glide-grid_1syn

> <i_i_glide_lignum>
491

> <i_i_glide_rotatable_bonds>
19

> <r_i_docking_score>
-8.18900814040276

> <r_i_glide_ligand_efficiency>
-0.190442049776808

> <r_i_glide_ligand_efficiency_sa>
-0.667194306967659

> <r_i_glide_ligand_efficiency_ln>
-1.71994621973789

> <r_i_glide_gscore>
-8.18900814040276

> <r_i_glide_lipo>
-3.70945539309862

> <r_i_glide_hbond>
0

> <r_i_glide_metal>
0

> <r_i_glide_rewards>
-1.32106343107006

> <r_i_glide_evdw>
-60.7522354125977

> <r_i_glide_ecoul>
-6.26103782653809

> <r_i_glide_erotb>
0.818278128376518

> <r_i_glide_esite>
0

> <r_i_glide_emodel>
-91.2116190698465

> <r_i_glide_energy>
-67.0132732391357

> <r_i_glide_einternal>
15.5610466003418

> <i_i_glide_confnum>
46

> <i_i_glide_posenum>
198

> <r_i_glide_eff_state_penalty>
0

> <s_user_duplicate_titles>
281876

> <s_m_subgroup_title>
dock_pv

> <s_m_subgroupid>
dock_pv1

> <b_m_subgroup_collapsed>
0

$$$$
17892
                    3D
 Schrodinger Suite 2021-1.
 33 34  0  0  1  0            999 V2000
   15.4905   15.7247   31.6424 C   0  0  0  0  0  0
   15.0718   16.0705   30.4084 C   0  0  0  0  0  0
   14.1898   17.2190   30.2616 C   0  0  0  0  0  0
   13.7399   17.6250   29.1926 O   0  0  0  0  0  0
   13.9056   17.8279   31.4499 N   0  0  0  0  0  0
   14.3132   17.5122   32.7204 C   0  0  0  0  0  0
   13.9649   18.2110   33.6710 O   0  0  0  0  0  0
   15.1239   16.3934   32.7917 N   0  0  0  0  0  0
   15.6504   16.0187   34.1024 C   0  0  1  0  0  0
   14.6739   15.5951   35.2089 C   0  0  0  0  0  0
   15.4416   14.5083   35.9702 C   0  0  2  0  0  0
   16.8392   14.4616   35.3290 C   0  0  2  0  0  0
   16.6049   15.0089   34.0412 O   0  0  0  0  0  0
   17.5010   13.0725   35.1385 C   0  0  0  0  0  0
   18.8933   13.0742   34.8044 O   0  0  0  0  0  0
   19.6241   14.2280   33.9088 P   0  0  0  0  0  0
   19.3411   15.6315   34.3069 O   0  0  0  0  0  0
   21.1903   13.8280   33.9910 O   0  0  0  0  0  0
   19.2229   13.8280   32.3910 O   0  0  0  0  0  0
   14.7267   13.2842   35.9910 O   0  0  0  0  0  0
   15.4616   15.3886   29.3090 F   0  0  0  0  0  0
   13.3141   18.6425   31.3799 H   0  0  0  0  0  0
   16.1583   14.8897   31.7993 H   0  0  0  0  0  0
   16.1920   16.9209   34.3910 H   0  0  0  0  0  0
   13.7388   15.2269   34.7910 H   0  0  0  0  0  0
   14.4492   16.4605   35.8328 H   0  0  0  0  0  0
   15.5497   14.8129   37.0101 H   0  0  0  0  0  0
   17.5069   15.0970   35.9124 H   0  0  0  0  0  0
   16.9564   12.4960   34.3910 H   0  0  0  0  0  0
   17.4262   12.5086   36.0680 H   0  0  0  0  0  0
   21.3920   12.9134   33.6161 H   0  0  0  0  0  0
   19.6222   12.9901   32.0357 H   0  0  0  0  0  0
   15.2413   12.6309   36.4699 H   0  0  0  0  0  0
  1  8  1  0  0  0
  1  2  2  0  0  0
  1 23  1  0  0  0
  2  3  1  0  0  0
  2 21  1  0  0  0
  3  4  2  0  0  0
  3  5  1  0  0  0
  5 22  1  0  0  0
  5  6  1  0  0  0
  6  7  2  0  0  0
  6  8  1  0  0  0
  8  9  1  0  0  0
  9 13  1  0  0  0
  9 10  1  0  0  0
  9 24  1  0  0  0
 10 11  1  0  0  0
 10 25  1  0  0  0
 10 26  1  0  0  0
 11 12  1  0  0  0
 11 20  1  0  0  0
 11 27  1  0  0  0
 12 13  1  0  0  0
 12 14  1  0  0  0
 12 28  1  0  0  0
 14 15  1  0  0  0
 14 29  1  0  0  0
 14 30  1  0  0  0
 15 16  1  0  0  0
 16 17  2  0  0  0
 16 18  1  0  0  0
 16 19  1  0  0  0
 18 31  1  0  0  0
 19 32  1  0  0  0
 20 33  1  0  0  0
M  END
> <s_m_entry_id>
41751

> <s_m_entry_name>
ligand_docking-pose.111

> <s_m_Source_Path>
/home/csk/Desktop/cluster/DUD-E-result/tysy

> <s_m_Source_File>
ligand_docking-pose.sdf

> <i_m_Source_File_Index>
111

> <i_lp_mmshare_version>
53161

> <i_f3d_flags>
0

> <r_lp_tautomer_probability>
0.999537046341301

> <s_lp_Force_Field>
OPLS_2005

> <r_lp_Energy>
19.698212

> <b_lp_Chiralities_Consistent>
1

> <s_lp_Variant>
17892-8

> <s_i_glide_gridfile>
glide-grid_1syn

> <i_i_glide_lignum>
145

> <i_i_glide_rotatable_bonds>
7

> <r_i_docking_score>
-8.18643844779951

> <r_i_glide_ligand_efficiency>
-0.389830402276167

> <r_i_glide_ligand_efficiency_sa>
-1.07551252043662

> <r_i_glide_ligand_efficiency_ln>
-2.02408036396195

> <r_i_glide_gscore>
-8.18643844779951

> <r_i_glide_lipo>
-1.85618193565938

> <r_i_glide_hbond>
-0.0125890260392471

> <r_i_glide_metal>
0

> <r_i_glide_rewards>
-2.90360740495483

> <r_i_glide_evdw>
-32.0846138000488

> <r_i_glide_ecoul>
-16.2712020874023

> <r_i_glide_erotb>
0.705007407578531

> <r_i_glide_esite>
-0.0741564856117958

> <r_i_glide_emodel>
-73.4135863747687

> <r_i_glide_energy>
-48.3558158874512

> <r_i_glide_einternal>
6.04744529724121

> <i_i_glide_confnum>
46

> <i_i_glide_posenum>
337

> <r_i_glide_eff_state_penalty>
0

> <s_user_duplicate_titles>
17892

> <s_m_subgroup_title>
dock_pv

> <s_m_subgroupid>
dock_pv1

> <b_m_subgroup_collapsed>
0

$$$$
293238
                    3D
 Schrodinger Suite 2021-1.
 58 60  0  0  1  0            999 V2000
   20.5498   14.6280   32.8073 C   0  0  0  0  0  0
   19.7565   14.2369   33.6477 C   0  0  0  0  0  0
   18.7341   13.6182   34.5105 C   0  0  0  0  0  0
   17.4915   14.3811   34.7279 N   0  0  0  0  0  0
   16.7256   14.0689   35.9519 C   0  0  0  0  0  0
   16.1559   12.6432   35.9907 C   0  0  0  0  0  0
   17.0133   11.5430   35.9905 C   0  0  0  0  0  0
   16.5336   10.2457   35.9811 C   0  0  0  0  0  0
   15.1529    9.9978   36.0334 C   0  0  0  0  0  0
   14.2456   11.1012   36.1104 C   0  0  0  0  0  0
   14.7748   12.4304   36.0783 C   0  0  0  0  0  0
   12.8735   10.7049   36.1879 C   0  0  0  0  0  0
   12.4384    9.4250   36.1449 N   0  0  0  0  0  0
   13.4049    8.4871   36.0520 C   0  0  0  0  0  0
   14.7379    8.6997   36.0109 N   0  0  0  0  0  0
   12.9937    7.1679   35.9899 N   0  0  0  0  0  0
   11.6679   11.9845   36.3919 S   0  0  0  0  0  0
   16.8066   15.0178   33.6607 C   0  0  0  0  0  0
   16.9945   14.6177   32.3293 C   0  0  0  0  0  0
   16.2655   15.1959   31.3020 C   0  0  0  0  0  0
   15.3276   16.1916   31.5836 C   0  0  0  0  0  0
   15.1874   16.6479   32.9019 C   0  0  0  0  0  0
   15.9083   16.0555   33.9251 C   0  0  0  0  0  0
   14.4381   16.6909   30.4776 C   0  0  0  0  0  0
   14.6704   16.4090   29.3010 O   0  0  0  0  0  0
   13.3437   17.3550   30.8905 N   0  0  0  0  0  0
   12.2199   17.8394   30.0926 C   0  0  2  0  0  0
   11.4841   16.6688   29.3740 C   0  0  0  0  0  0
   11.5969   15.2004   29.9029 C   0  0  0  0  0  0
   10.3430   14.3664   29.5911 C   0  0  0  0  0  0
    9.2154   14.8465   29.5125 O   0  0  0  0  0  0
   10.5919   13.0332   29.4546 O   0  0  0  0  0  0
   12.6455   18.9750   29.1199 C   0  0  0  0  0  0
   13.6148   18.9251   28.3928 O   0  0  0  0  0  0
   11.7920   20.0313   29.1919 O   0  0  0  0  0  0
   21.2469   14.8936   32.0431 H   0  0  0  0  0  0
   19.1969   13.4066   35.4743 H   0  0  0  0  0  0
   18.4994   12.6664   34.0318 H   0  0  0  0  0  0
   15.9070   14.7625   36.1298 H   0  0  0  0  0  0
   17.3931   14.2133   36.7909 H   0  0  0  0  0  0
   18.0833   11.6684   35.9906 H   0  0  0  0  0  0
   17.2273    9.4282   35.9217 H   0  0  0  0  0  0
   14.1120   13.2814   36.1001 H   0  0  0  0  0  0
   13.6856    6.4362   35.9556 H   0  0  0  0  0  0
   12.0239    6.9951   35.7657 H   0  0  0  0  0  0
   12.5416   13.0176   36.3840 H   0  0  0  0  0  0
   17.6591   13.8071   32.0712 H   0  0  0  0  0  0
   16.4041   14.8224   30.2960 H   0  0  0  0  0  0
   14.5007   17.4385   33.1680 H   0  0  0  0  0  0
   15.7555   16.4226   34.9257 H   0  0  0  0  0  0
   13.2714   17.5575   31.8739 H   0  0  0  0  0  0
   11.5299   18.2599   30.8243 H   0  0  0  0  0  0
   10.4461   16.9651   29.2084 H   0  0  0  0  0  0
   11.9188   16.6282   28.3917 H   0  0  0  0  0  0
   12.4736   14.7111   29.4791 H   0  0  0  0  0  0
   11.7926   15.1628   30.9711 H   0  0  0  0  0  0
   11.5138   12.7482   29.5913 H   0  0  0  0  0  0
   10.9246   19.8293   29.5831 H   0  0  0  0  0  0
  1  2  3  0  0  0
  1 36  1  0  0  0
  2  3  1  0  0  0
  3  4  1  0  0  0
  3 37  1  0  0  0
  3 38  1  0  0  0
  4  5  1  0  0  0
  4 18  1  0  0  0
  5  6  1  0  0  0
  5 39  1  0  0  0
  5 40  1  0  0  0
  6 11  1  0  0  0
  6  7  2  0  0  0
  7  8  1  0  0  0
  7 41  1  0  0  0
  8  9  2  0  0  0
  8 42  1  0  0  0
  9 15  1  0  0  0
  9 10  1  0  0  0
 10 11  2  0  0  0
 10 12  1  0  0  0
 11 43  1  0  0  0
 12 13  2  0  0  0
 12 17  1  0  0  0
 13 14  1  0  0  0
 14 15  2  0  0  0
 14 16  1  0  0  0
 16 44  1  0  0  0
 16 45  1  0  0  0
 17 46  1  0  0  0
 18 23  1  0  0  0
 18 19  2  0  0  0
 19 20  1  0  0  0
 19 47  1  0  0  0
 20 21  2  0  0  0
 20 48  1  0  0  0
 21 22  1  0  0  0
 21 24  1  0  0  0
 22 23  2  0  0  0
 22 49  1  0  0  0
 23 50  1  0  0  0
 24 25  2  0  0  0
 24 26  1  0  0  0
 26 27  1  0  0  0
 26 51  1  0  0  0
 27 28  1  0  0  0
 27 33  1  0  0  0
 27 52  1  0  0  0
 28 29  1  0  0  0
 28 53  1  0  0  0
 28 54  1  0  0  0
 29 30  1  0  0  0
 29 55  1  0  0  0
 29 56  1  0  0  0
 30 31  2  0  0  0
 30 32  1  0  0  0
 32 57  1  0  0  0
 33 34  2  0  0  0
 33 35  1  0  0  0
 35 58  1  0  0  0
M  END
> <s_m_entry_id>
41753

> <s_m_entry_name>
ligand_docking-pose.113

> <s_m_Source_Path>
/home/csk/Desktop/cluster/DUD-E-result/tysy

> <s_m_Source_File>
ligand_docking-pose.sdf

> <i_m_Source_File_Index>
113

> <i_lp_mmshare_version>
53161

> <i_f3d_flags>
0

> <r_lp_tautomer_probability>
1

> <s_lp_Force_Field>
OPLS_2005

> <r_lp_Energy>
14.321271

> <b_lp_Chiralities_Consistent>
1

> <s_lp_Variant>
293238-1

> <s_i_glide_gridfile>
glide-grid_1syn

> <i_i_glide_lignum>
814

> <i_i_glide_rotatable_bonds>
15

> <r_i_docking_score>
-8.18226786762477

> <r_i_glide_ligand_efficiency>
-0.233779081932136

> <r_i_glide_ligand_efficiency_sa>
-0.764706878028762

> <r_i_glide_ligand_efficiency_ln>
-1.79618939259484

> <r_i_glide_gscore>
-8.18226786762477

> <r_i_glide_lipo>
-3.105662250192

> <r_i_glide_hbond>
-0.0983140369199048

> <r_i_glide_metal>
0

> <r_i_glide_rewards>
-1.38104022675191

> <r_i_glide_evdw>
-41.2139053344727

> <r_i_glide_ecoul>
-16.8691787719727

> <r_i_glide_erotb>
1.00364830826594

> <r_i_glide_esite>
-0.00982757950735992

> <r_i_glide_emodel>
-81.6670451718192

> <r_i_glide_energy>
-58.0830841064453

> <r_i_glide_einternal>
10.3381299972534

> <i_i_glide_confnum>
165

> <i_i_glide_posenum>
291

> <r_i_glide_eff_state_penalty>
0

> <s_user_duplicate_titles>
293238

> <s_m_subgroup_title>
dock_pv

> <s_m_subgroupid>
dock_pv1

> <b_m_subgroup_collapsed>
0

$$$$
237540
                    3D
 Schrodinger Suite 2021-1.
 58 60  0  0  1  0            999 V2000
   21.8168   14.2425   32.6313 C   0  0  0  0  0  0
   20.8865   14.2280   33.4212 C   0  0  0  0  0  0
   19.8886   14.0828   34.4911 C   0  0  0  0  0  0
   18.4843   14.2514   34.0985 N   0  0  0  0  0  0
   18.1672   15.6342   33.7326 C   0  0  0  0  0  0
   16.9263   15.8120   32.8743 C   0  0  0  0  0  0
   16.8148   15.1873   31.6305 C   0  0  0  0  0  0
   15.7870   15.5347   30.7527 C   0  0  0  0  0  0
   14.8507   16.5341   31.1154 C   0  0  0  0  0  0
   14.9240   17.1198   32.4141 C   0  0  0  0  0  0
   15.9689   16.7333   33.2840 C   0  0  0  0  0  0
   13.9454   18.1049   32.7280 C   0  0  0  0  0  0
   13.0298   18.5069   31.8190 N   0  0  0  0  0  0
   13.0818   17.9217   30.6049 C   0  0  0  0  0  0
   13.9220   16.9403   30.2074 N   0  0  0  0  0  0
   12.1919   18.3893   29.6611 N   0  0  0  0  0  0
   14.0015   18.6281   33.9908 O   0  0  0  0  0  0
   17.5564   13.5306   34.9043 C   0  0  0  0  0  0
   16.5838   14.1821   35.6879 C   0  0  0  0  0  0
   15.5992   13.4700   36.3767 C   0  0  0  0  0  0
   15.5525   12.0738   36.3086 C   0  0  0  0  0  0
   16.5568   11.4155   35.5909 C   0  0  0  0  0  0
   17.5219   12.1224   34.8786 C   0  0  0  0  0  0
   18.5920   11.1685   33.9159 Cl  0  0  0  0  0  0
   14.4245   11.3012   36.9530 C   0  0  0  0  0  0
   13.8099   11.7437   37.9239 O   0  0  0  0  0  0
   14.1315   10.1306   36.3587 N   0  0  0  0  0  0
   13.0870    9.1700   36.7191 C   0  0  1  0  0  0
   11.6892    9.6871   36.2775 C   0  0  0  0  0  0
   11.5197    9.9263   34.7565 C   0  0  0  0  0  0
   10.0971   10.3399   34.3837 C   0  0  0  0  0  0
    9.3993   11.0738   35.0794 O   0  0  0  0  0  0
    9.6958    9.8280   33.1841 O   0  0  0  0  0  0
   13.4224    7.7888   36.1136 C   0  0  0  0  0  0
   14.1920    7.6140   35.1901 O   0  0  0  0  0  0
   12.7186    6.8131   36.7520 O   0  0  0  0  0  0
   22.6630   14.1981   31.9909 H   0  0  0  0  0  0
   20.1595   14.8621   35.1910 H   0  0  0  0  0  0
   20.0852   13.1087   34.9356 H   0  0  0  0  0  0
   18.9923   16.0777   33.1910 H   0  0  0  0  0  0
   18.1065   16.2280   34.6410 H   0  0  0  0  0  0
   17.5655   14.4729   31.3198 H   0  0  0  0  0  0
   15.7269   15.0807   29.7739 H   0  0  0  0  0  0
   16.0528   17.2173   34.2448 H   0  0  0  0  0  0
   12.2116   17.9955   28.7361 H   0  0  0  0  0  0
   11.4672   19.0317   29.9534 H   0  0  0  0  0  0
   13.3893   19.3637   34.1373 H   0  0  0  0  0  0
   16.5548   15.2570   35.7630 H   0  0  0  0  0  0
   14.8553   14.0197   36.9375 H   0  0  0  0  0  0
   16.5760   10.3369   35.5249 H   0  0  0  0  0  0
   14.6773    9.8549   35.5567 H   0  0  0  0  0  0
   13.1013    9.0638   37.8057 H   0  0  0  0  0  0
   10.9225    8.9894   36.6203 H   0  0  0  0  0  0
   11.4734   10.6174   36.8064 H   0  0  0  0  0  0
   12.1914   10.7106   34.4177 H   0  0  0  0  0  0
   11.7919    9.0290   34.2029 H   0  0  0  0  0  0
   10.3430    9.2647   32.7514 H   0  0  0  0  0  0
   12.8977    5.9535   36.3621 H   0  0  0  0  0  0
  1  2  3  0  0  0
  1 37  1  0  0  0
  2  3  1  0  0  0
  3  4  1  0  0  0
  3 38  1  0  0  0
  3 39  1  0  0  0
  4  5  1  0  0  0
  4 18  1  0  0  0
  5  6  1  0  0  0
  5 40  1  0  0  0
  5 41  1  0  0  0
  6 11  1  0  0  0
  6  7  2  0  0  0
  7  8  1  0  0  0
  7 42  1  0  0  0
  8  9  2  0  0  0
  8 43  1  0  0  0
  9 15  1  0  0  0
  9 10  1  0  0  0
 10 11  2  0  0  0
 10 12  1  0  0  0
 11 44  1  0  0  0
 12 13  2  0  0  0
 12 17  1  0  0  0
 13 14  1  0  0  0
 14 15  2  0  0  0
 14 16  1  0  0  0
 16 45  1  0  0  0
 16 46  1  0  0  0
 17 47  1  0  0  0
 18 23  1  0  0  0
 18 19  2  0  0  0
 19 20  1  0  0  0
 19 48  1  0  0  0
 20 21  2  0  0  0
 20 49  1  0  0  0
 21 22  1  0  0  0
 21 25  1  0  0  0
 22 23  2  0  0  0
 22 50  1  0  0  0
 23 24  1  0  0  0
 25 26  2  0  0  0
 25 27  1  0  0  0
 27 28  1  0  0  0
 27 51  1  0  0  0
 28 29  1  0  0  0
 28 34  1  0  0  0
 28 52  1  0  0  0
 29 30  1  0  0  0
 29 53  1  0  0  0
 29 54  1  0  0  0
 30 31  1  0  0  0
 30 55  1  0  0  0
 30 56  1  0  0  0
 31 32  2  0  0  0
 31 33  1  0  0  0
 33 57  1  0  0  0
 34 35  2  0  0  0
 34 36  1  0  0  0
 36 58  1  0  0  0
M  END
> <s_m_entry_id>
41754

> <s_m_entry_name>
ligand_docking-pose.114

> <s_m_Source_Path>
/home/csk/Desktop/cluster/DUD-E-result/tysy

> <s_m_Source_File>
ligand_docking-pose.sdf

> <i_m_Source_File_Index>
114

> <i_lp_mmshare_version>
53161

> <i_f3d_flags>
0

> <r_lp_tautomer_probability>
1

> <s_lp_Force_Field>
OPLS_2005

> <r_lp_Energy>
11.667922

> <b_lp_Chiralities_Consistent>
1

> <s_lp_Variant>
237540-2

> <s_i_glide_gridfile>
glide-grid_1syn

> <i_i_glide_lignum>
805

> <i_i_glide_rotatable_bonds>
15

> <r_i_docking_score>
-8.17988649558297

> <r_i_glide_ligand_efficiency>
-0.227219069321749

> <r_i_glide_ligand_efficiency_sa>
-0.750260835565769

> <r_i_glide_ligand_efficiency_ln>
-1.78463023834221

> <r_i_glide_gscore>
-8.17988649558297

> <r_i_glide_lipo>
-3.64231410148176

> <r_i_glide_hbond>
-0.634244770463691

> <r_i_glide_metal>
0

> <r_i_glide_rewards>
-0.646501435936345

> <r_i_glide_evdw>
-56.3551979064941

> <r_i_glide_ecoul>
-8.98880767822266

> <r_i_glide_erotb>
0.938555176336672

> <r_i_glide_esite>
-0.0293003169797355

> <r_i_glide_emodel>
-88.833211793387

> <r_i_glide_energy>
-65.3440055847168

> <r_i_glide_einternal>
3.92993378639221

> <i_i_glide_confnum>
69

> <i_i_glide_posenum>
6

> <r_i_glide_eff_state_penalty>
0

> <s_user_duplicate_titles>
237540

> <s_m_subgroup_title>
dock_pv

> <s_m_subgroupid>
dock_pv1

> <b_m_subgroup_collapsed>
0

$$$$
234847
                    3D
 Schrodinger Suite 2021-1.
 57 60  0  0  1  0            999 V2000
   18.9908   12.6820   33.9898 C   0  0  0  0  0  0
   17.7381   13.2980   34.2428 O   0  0  0  0  0  0
   17.6456   14.6427   34.3396 C   0  0  0  0  0  0
   18.5939   15.4300   34.2677 O   0  0  0  0  0  0
   16.2099   15.0843   34.5635 C   0  0  2  0  0  0
   15.8710   16.4380   33.8514 C   0  0  2  0  0  0
   14.5920   17.1651   34.2811 C   0  0  0  0  0  0
   13.7801   17.4520   33.3458 N   0  0  0  0  0  0
   14.3239   16.9421   32.1777 C   0  0  0  0  0  0
   15.5327   16.3034   32.3878 C   0  0  0  0  0  0
   16.1924   15.6903   31.3207 C   0  0  0  0  0  0
   15.6364   15.7504   30.0399 C   0  0  0  0  0  0
   14.4274   16.4180   29.8298 C   0  0  0  0  0  0
   13.7596   17.0159   30.9031 C   0  0  0  0  0  0
   15.8964   15.0280   35.9909 N   0  0  2  0  0  0
   14.5369   14.2280   36.5906 P   0  0  2  0  0  0
   13.2329   14.5430   35.9509 O   0  0  0  0  0  0
   14.5919   14.6279   38.1585 O   0  0  0  0  0  0
   14.9591   12.6522   36.5518 O   0  0  0  0  0  0
   13.9670   11.6318   36.5630 C   0  0  0  0  0  0
   13.1445   11.6538   37.8639 C   0  0  1  0  0  0
   11.9260   10.7195   37.8942 C   0  0  1  0  0  0
   12.0046    9.9561   39.2172 C   0  0  0  0  0  0
   13.2161   10.5722   39.9128 C   0  0  1  0  0  0
   13.9692   11.1904   38.9198 O   0  0  0  0  0  0
   12.9931   11.5321   40.9953 N   0  0  0  0  0  0
   12.1441   12.6003   40.7990 C   0  0  0  0  0  0
   12.1130   13.6910   41.5897 C   0  0  0  0  0  0
   12.9920   13.7358   42.7451 C   0  0  0  0  0  0
   12.9920   14.6273   43.5798 O   0  0  0  0  0  0
   13.7805   12.6343   42.8707 N   0  0  0  0  0  0
   13.8405   11.5143   42.0897 C   0  0  0  0  0  0
   14.6409   10.6314   42.3937 O   0  0  0  0  0  0
   11.2581   14.7109   41.3648 F   0  0  0  0  0  0
   10.6971   11.4146   37.7816 O   0  0  0  0  0  0
   15.5667   14.3488   34.1028 H   0  0  0  0  0  0
   14.3948   12.6220   43.6741 H   0  0  0  0  0  0
   18.8731   11.6004   33.9341 H   0  0  0  0  0  0
   19.3920   13.0283   33.0376 H   0  0  0  0  0  0
   19.7147   12.9092   34.7736 H   0  0  0  0  0  0
   16.6958   17.1389   33.9878 H   0  0  0  0  0  0
   14.3828   17.4485   35.3089 H   0  0  0  0  0  0
   17.1342   15.1819   31.4645 H   0  0  0  0  0  0
   16.1458   15.2827   29.2101 H   0  0  0  0  0  0
   14.0065   16.4694   28.8370 H   0  0  0  0  0  0
   12.8197   17.5223   30.7392 H   0  0  0  0  0  0
   16.2732   15.7911   36.5572 H   0  0  0  0  0  0
   14.9525   15.5333   38.3145 H   0  0  0  0  0  0
   13.3140   11.7782   35.7038 H   0  0  0  0  0  0
   14.4404   10.6604   36.4235 H   0  0  0  0  0  0
   12.8342   12.6761   38.0821 H   0  0  0  0  0  0
   11.9959    9.9911   37.0830 H   0  0  0  0  0  0
   11.1117   10.0369   39.8380 H   0  0  0  0  0  0
   12.1991    8.8979   39.0391 H   0  0  0  0  0  0
   13.8306    9.7651   40.3208 H   0  0  0  0  0  0
   11.5007   12.5034   39.9378 H   0  0  0  0  0  0
   10.6972   11.9265   36.9677 H   0  0  0  0  0  0
  1  2  1  0  0  0
  1 38  1  0  0  0
  1 39  1  0  0  0
  1 40  1  0  0  0
  2  3  1  0  0  0
  3  4  2  0  0  0
  3  5  1  0  0  0
  5 36  1  0  0  0
  5  6  1  0  0  0
  5 15  1  0  0  0
  6 10  1  0  0  0
  6  7  1  0  0  0
  6 41  1  0  0  0
  7  8  2  0  0  0
  7 42  1  0  0  0
  8  9  1  0  0  0
  9 14  2  0  0  0
  9 10  1  0  0  0
 10 11  2  0  0  0
 11 12  1  0  0  0
 11 43  1  0  0  0
 12 13  2  0  0  0
 12 44  1  0  0  0
 13 14  1  0  0  0
 13 45  1  0  0  0
 14 46  1  0  0  0
 15 16  1  0  0  0
 15 47  1  0  0  0
 16 17  2  0  0  0
 16 18  1  0  0  0
 16 19  1  0  0  0
 18 48  1  0  0  0
 19 20  1  0  0  0
 20 21  1  0  0  0
 20 49  1  0  0  0
 20 50  1  0  0  0
 21 25  1  0  0  0
 21 22  1  0  0  0
 21 51  1  0  0  0
 22 23  1  0  0  0
 22 35  1  0  0  0
 22 52  1  0  0  0
 23 24  1  0  0  0
 23 53  1  0  0  0
 23 54  1  0  0  0
 24 25  1  0  0  0
 24 26  1  0  0  0
 24 55  1  0  0  0
 26 32  1  0  0  0
 26 27  1  0  0  0
 27 28  2  0  0  0
 27 56  1  0  0  0
 28 29  1  0  0  0
 28 34  1  0  0  0
 29 30  2  0  0  0
 29 31  1  0  0  0
 31 37  1  0  0  0
 31 32  1  0  0  0
 32 33  2  0  0  0
 35 57  1  0  0  0
M  END
> <s_m_entry_id>
41755

> <s_m_entry_name>
ligand_docking-pose.115

> <s_m_Source_Path>
/home/csk/Desktop/cluster/DUD-E-result/tysy

> <s_m_Source_File>
ligand_docking-pose.sdf

> <i_m_Source_File_Index>
115

> <i_lp_mmshare_version>
53161

> <i_f3d_flags>
0

> <r_lp_tautomer_probability>
0.999138390123642

> <s_lp_Force_Field>
OPLS_2005

> <r_lp_Energy>
15.764448

> <b_lp_Chiralities_Consistent>
1

> <s_lp_Variant>
234847-7

> <s_i_glide_gridfile>
glide-grid_1syn

> <i_i_glide_lignum>
986

> <i_i_glide_rotatable_bonds>
11

> <r_i_docking_score>
-8.17917477118575

> <r_i_glide_ligand_efficiency>
-0.233690707748164

> <r_i_glide_ligand_efficiency_sa>
-0.764417800213224

> <r_i_glide_ligand_efficiency_ln>
-1.7955103892789

> <r_i_glide_gscore>
-8.17917477118575

> <r_i_glide_lipo>
-2.40227661695969

> <r_i_glide_hbond>
-0.415229269816167

> <r_i_glide_metal>
0

> <r_i_glide_rewards>
-1.79844185778864

> <r_i_glide_evdw>
-46.9384117126465

> <r_i_glide_ecoul>
-11.5323848724365

> <r_i_glide_erotb>
0.546572106955153

> <r_i_glide_esite>
-0.0330208170786096

> <r_i_glide_emodel>
-84.0562727645795

> <r_i_glide_energy>
-58.470796585083

> <r_i_glide_einternal>
8.30382633209229

> <i_i_glide_confnum>
106

> <i_i_glide_posenum>
147

> <r_i_glide_eff_state_penalty>
0

> <s_user_duplicate_titles>
234847

> <s_m_subgroup_title>
dock_pv

> <s_m_subgroupid>
dock_pv1

> <b_m_subgroup_collapsed>
0

$$$$
235847
                    3D
 Schrodinger Suite 2021-1.
 33 34  0  0  1  0            999 V2000
   15.1291   15.8547   31.6069 C   0  0  0  0  0  0
   14.6932   16.2048   30.3819 C   0  0  0  0  0  0
   13.7885   17.3362   30.2534 C   0  0  0  0  0  0
   13.3301   17.7469   29.1910 O   0  0  0  0  0  0
   13.4866   17.9142   31.4524 N   0  0  0  0  0  0
   13.9008   17.5843   32.7172 C   0  0  0  0  0  0
   13.5073   18.2280   33.6873 O   0  0  0  0  0  0
   14.7621   16.5053   32.7660 N   0  0  0  0  0  0
   15.3210   16.1334   34.0641 C   0  0  1  0  0  0
   14.3849   15.6323   35.1701 C   0  0  0  0  0  0
   15.1167   14.3911   35.6852 C   0  0  1  0  0  0
   16.5648   14.5504   35.2035 C   0  0  2  0  0  0
   16.3090   15.1591   33.9523 O   0  0  0  0  0  0
   17.3504   13.2328   34.9751 C   0  0  0  0  0  0
   18.2468   13.2222   33.8613 O   0  0  0  0  0  0
   19.3296   14.4001   33.5221 P   0  0  0  0  0  0
   18.9920   15.7722   33.9910 O   0  0  0  0  0  0
   20.7260   13.8280   34.0996 O   0  0  0  0  0  0
   19.5325   14.2280   31.9206 O   0  0  0  0  0  0
   14.9926   14.2280   37.0841 O   0  0  0  0  0  0
   15.2595   15.2136   28.7736 Br  0  0  0  0  0  0
   12.8640   18.7061   31.3980 H   0  0  0  0  0  0
   15.8090   15.0280   31.7455 H   0  0  0  0  0  0
   15.8145   17.0534   34.3910 H   0  0  0  0  0  0
   13.3869   15.4137   34.7910 H   0  0  0  0  0  0
   14.3025   16.4186   35.9210 H   0  0  0  0  0  0
   14.6743   13.5239   35.1911 H   0  0  0  0  0  0
   17.1549   15.2402   35.8099 H   0  0  0  0  0  0
   16.6568   12.4125   34.7910 H   0  0  0  0  0  0
   17.8918   12.9646   35.8828 H   0  0  0  0  0  0
   20.9920   12.9451   33.7156 H   0  0  0  0  0  0
   19.7920   13.3154   31.6212 H   0  0  0  0  0  0
   15.3227   15.0334   37.5084 H   0  0  0  0  0  0
  1  8  1  0  0  0
  1  2  2  0  0  0
  1 23  1  0  0  0
  2  3  1  0  0  0
  2 21  1  0  0  0
  3  4  2  0  0  0
  3  5  1  0  0  0
  5 22  1  0  0  0
  5  6  1  0  0  0
  6  7  2  0  0  0
  6  8  1  0  0  0
  8  9  1  0  0  0
  9 13  1  0  0  0
  9 10  1  0  0  0
  9 24  1  0  0  0
 10 11  1  0  0  0
 10 25  1  0  0  0
 10 26  1  0  0  0
 11 12  1  0  0  0
 11 20  1  0  0  0
 11 27  1  0  0  0
 12 13  1  0  0  0
 12 14  1  0  0  0
 12 28  1  0  0  0
 14 15  1  0  0  0
 14 29  1  0  0  0
 14 30  1  0  0  0
 15 16  1  0  0  0
 16 17  2  0  0  0
 16 18  1  0  0  0
 16 19  1  0  0  0
 18 31  1  0  0  0
 19 32  1  0  0  0
 20 33  1  0  0  0
M  END
> <s_m_entry_id>
41762

> <s_m_entry_name>
ligand_docking-pose.122

> <s_m_Source_Path>
/home/csk/Desktop/cluster/DUD-E-result/tysy

> <s_m_Source_File>
ligand_docking-pose.sdf

> <i_m_Source_File_Index>
122

> <i_lp_mmshare_version>
53161

> <i_f3d_flags>
0

> <r_lp_tautomer_probability>
0.999537046341301

> <s_lp_Force_Field>
OPLS_2005

> <r_lp_Energy>
10.584574

> <b_lp_Chiralities_Consistent>
1

> <s_lp_Variant>
235847-6

> <s_i_glide_gridfile>
glide-grid_1syn

> <i_i_glide_lignum>
111

> <i_i_glide_rotatable_bonds>
7

> <r_i_docking_score>
-8.15945791756378

> <r_i_glide_ligand_efficiency>
-0.388545615122085

> <r_i_glide_ligand_efficiency_sa>
-1.07196789009932

> <r_i_glide_ligand_efficiency_ln>
-2.01740948238046

> <r_i_glide_gscore>
-8.15945791756378

> <r_i_glide_lipo>
-2.1313069447661

> <r_i_glide_hbond>
-0.295225319268043

> <r_i_glide_metal>
0

> <r_i_glide_rewards>
-1.93368223144691

> <r_i_glide_evdw>
-38.9686317443848

> <r_i_glide_ecoul>
-15.3706874847412

> <r_i_glide_erotb>
0.519791524720225

> <r_i_glide_esite>
-0.0650002368725282

> <r_i_glide_emodel>
-78.5920169407172

> <r_i_glide_energy>
-54.339319229126

> <r_i_glide_einternal>
5.66866779327393

> <i_i_glide_confnum>
23

> <i_i_glide_posenum>
321

> <r_i_glide_eff_state_penalty>
0

> <s_user_duplicate_titles>
235847

> <s_m_subgroup_title>
dock_pv

> <s_m_subgroupid>
dock_pv1

> <b_m_subgroup_collapsed>
0

$$$$
641302
                    3D
 Schrodinger Suite 2021-1.
 57 60  0  0  1  0            999 V2000
   13.3921   18.0934   28.4447 C   0  0  0  0  0  0
   12.5747   19.0281   29.0740 C   0  0  0  0  0  0
   12.5919   19.1380   30.4611 C   0  0  0  0  0  0
   13.4437   18.3279   31.2164 C   0  0  0  0  0  0
   14.2163   17.3514   30.5774 C   0  0  0  0  0  0
   14.1931   17.2359   29.1917 C   0  0  0  0  0  0
   13.5428   18.5505   32.7228 C   0  0  0  0  0  0
   14.8785   18.3129   33.1870 O   0  0  0  0  0  0
   15.1270   17.1249   33.8317 C   0  0  0  0  0  0
   14.3101   16.6470   34.8542 C   0  0  0  0  0  0
   14.5914   15.4267   35.4572 C   0  0  0  0  0  0
   15.6781   14.6417   35.0465 C   0  0  0  0  0  0
   16.5139   15.1629   34.0414 C   0  0  0  0  0  0
   16.2504   16.3969   33.4550 C   0  0  0  0  0  0
   15.8424   13.2542   35.5910 C   0  0  0  0  0  0
   14.7860   12.5673   36.1008 C   0  0  0  0  0  0
   14.8347   11.2737   36.5652 N   0  0  0  0  0  0
   16.0154   10.5690   36.5247 C   0  0  0  0  0  0
   16.1920    9.4280   36.9335 O   0  0  0  0  0  0
   17.0632   11.2606   35.9909 N   0  0  0  0  0  0
   17.1277   12.5450   35.5509 C   0  0  0  0  0  0
   18.2081   13.0026   35.1910 O   0  0  0  0  0  0
   13.6656   10.6465   37.1760 C   0  0  2  0  0  0
   13.6497   10.4762   38.7015 C   0  0  0  0  0  0
   13.3654    8.9891   38.8815 C   0  0  1  0  0  0
   12.7205    8.5688   37.5463 C   0  0  1  0  0  0
   13.3555    9.4078   36.5931 O   0  0  0  0  0  0
   12.7800    7.0783   37.1345 C   0  0  0  0  0  0
   14.0862    6.5217   37.0301 O   0  0  0  0  0  0
   14.4964    5.2366   37.9461 P   0  0  0  0  0  0
   14.6704    5.5325   39.3933 O   0  0  0  0  0  0
   13.3562    4.1445   37.5910 O   0  0  0  0  0  0
   15.7923    4.6280   37.1921 O   0  0  0  0  0  0
   14.5590    8.3299   39.2717 O   0  0  0  0  0  0
   17.9392   10.7626   35.9633 H   0  0  0  0  0  0
   13.3921   18.0158   27.3673 H   0  0  0  0  0  0
   11.9273   19.6683   28.4916 H   0  0  0  0  0  0
   11.9674   19.8803   30.9388 H   0  0  0  0  0  0
   14.8617   16.6973   31.1415 H   0  0  0  0  0  0
   14.8065   16.4965   28.6983 H   0  0  0  0  0  0
   12.7711   17.9593   33.2162 H   0  0  0  0  0  0
   13.3172   19.5939   32.9449 H   0  0  0  0  0  0
   13.4609   17.2223   35.1905 H   0  0  0  0  0  0
   13.9333   15.0880   36.2410 H   0  0  0  0  0  0
   17.3534   14.6056   33.6566 H   0  0  0  0  0  0
   16.8955   16.7689   32.6728 H   0  0  0  0  0  0
   13.7900   12.9796   36.1460 H   0  0  0  0  0  0
   12.8293   11.2920   36.8995 H   0  0  0  0  0  0
   12.8495   11.0911   39.1157 H   0  0  0  0  0  0
   14.5921   10.7997   39.1462 H   0  0  0  0  0  0
   12.6436    8.8498   39.6879 H   0  0  0  0  0  0
   11.6657    8.8529   37.5470 H   0  0  0  0  0  0
   12.3026    6.9664   36.1595 H   0  0  0  0  0  0
   12.1632    6.5042   37.8288 H   0  0  0  0  0  0
   13.3919    3.8280   36.6514 H   0  0  0  0  0  0
   15.6405    4.3739   36.2618 H   0  0  0  0  0  0
   14.4395    7.3703   39.2392 H   0  0  0  0  0  0
  1  6  1  0  0  0
  1  2  2  0  0  0
  1 36  1  0  0  0
  2  3  1  0  0  0
  2 37  1  0  0  0
  3  4  2  0  0  0
  3 38  1  0  0  0
  4  5  1  0  0  0
  4  7  1  0  0  0
  5  6  2  0  0  0
  5 39  1  0  0  0
  6 40  1  0  0  0
  7  8  1  0  0  0
  7 41  1  0  0  0
  7 42  1  0  0  0
  8  9  1  0  0  0
  9 14  1  0  0  0
  9 10  2  0  0  0
 10 11  1  0  0  0
 10 43  1  0  0  0
 11 12  2  0  0  0
 11 44  1  0  0  0
 12 13  1  0  0  0
 12 15  1  0  0  0
 13 14  2  0  0  0
 13 45  1  0  0  0
 14 46  1  0  0  0
 15 21  1  0  0  0
 15 16  2  0  0  0
 16 17  1  0  0  0
 16 47  1  0  0  0
 17 18  1  0  0  0
 17 23  1  0  0  0
 18 19  2  0  0  0
 18 20  1  0  0  0
 20 35  1  0  0  0
 20 21  1  0  0  0
 21 22  2  0  0  0
 23 27  1  0  0  0
 23 24  1  0  0  0
 23 48  1  0  0  0
 24 25  1  0  0  0
 24 49  1  0  0  0
 24 50  1  0  0  0
 25 26  1  0  0  0
 25 34  1  0  0  0
 25 51  1  0  0  0
 26 27  1  0  0  0
 26 28  1  0  0  0
 26 52  1  0  0  0
 28 29  1  0  0  0
 28 53  1  0  0  0
 28 54  1  0  0  0
 29 30  1  0  0  0
 30 31  2  0  0  0
 30 32  1  0  0  0
 30 33  1  0  0  0
 32 55  1  0  0  0
 33 56  1  0  0  0
 34 57  1  0  0  0
M  END
> <s_m_entry_id>
41763

> <s_m_entry_name>
ligand_docking-pose.123

> <s_m_Source_Path>
/home/csk/Desktop/cluster/DUD-E-result/tysy

> <s_m_Source_File>
ligand_docking-pose.sdf

> <i_m_Source_File_Index>
123

> <i_lp_mmshare_version>
53161

> <i_f3d_flags>
0

> <r_lp_tautomer_probability>
0.999537046341301

> <s_lp_Force_Field>
OPLS_2005

> <r_lp_Energy>
38.816191

> <b_lp_Chiralities_Consistent>
1

> <s_lp_Variant>
641302-1

> <s_i_glide_gridfile>
glide-grid_1syn

> <i_i_glide_lignum>
42

> <i_i_glide_rotatable_bonds>
11

> <r_i_docking_score>
-8.15136831971637

> <r_i_glide_ligand_efficiency>
-0.239746127050482

> <r_i_glide_ligand_efficiency_sa>
-0.776684381590354

> <r_i_glide_ligand_efficiency_ln>
-1.80086589996222

> <r_i_glide_gscore>
-8.15136831971637

> <r_i_glide_lipo>
-3.60053920481082

> <r_i_glide_hbond>
-0.234040736032103

> <r_i_glide_metal>
0

> <r_i_glide_rewards>
0.00882394326880953

> <r_i_glide_evdw>
-47.4465675354004

> <r_i_glide_ecoul>
-17.3433094024658

> <r_i_glide_erotb>
0.676954715371003

> <r_i_glide_esite>
-0.0287422503733667

> <r_i_glide_emodel>
-87.8812962058227

> <r_i_glide_energy>
-64.7898769378662

> <r_i_glide_einternal>
11.6853790283203

> <i_i_glide_confnum>
26

> <i_i_glide_posenum>
134

> <r_i_glide_eff_state_penalty>
0

> <s_user_duplicate_titles>
641302

> <s_m_subgroup_title>
dock_pv

> <s_m_subgroupid>
dock_pv1

> <b_m_subgroup_collapsed>
0

$$$$
152072
                    3D
 Schrodinger Suite 2021-1.
 59 61  0  0  1  0            999 V2000
   15.8131   15.8226   28.7928 C   0  0  0  0  0  0
   15.7889   15.8387   30.3100 C   0  0  0  0  0  0
   14.8769   16.6326   31.0043 C   0  0  0  0  0  0
   14.8357   16.5675   32.3956 C   0  0  0  0  0  0
   15.7134   15.6728   33.0717 C   0  0  0  0  0  0
   15.6419   15.4110   34.4668 C   0  0  0  0  0  0
   16.4501   14.4301   35.0465 C   0  0  0  0  0  0
   17.4354   13.8017   34.2811 C   0  0  0  0  0  0
   17.5569   14.0563   32.9172 C   0  0  0  0  0  0
   16.6626   14.9493   32.2814 C   0  0  0  0  0  0
   16.6945   15.0372   30.9220 N   0  0  0  0  0  0
   16.2797   14.0554   36.5152 C   0  0  0  0  0  0
   14.9716   13.4461   36.8430 N   0  0  0  0  0  0
   14.0718   14.2040   37.7324 C   0  0  0  0  0  0
   13.5814   13.5073   38.9453 C   0  0  0  0  0  0
   13.2153   12.8973   39.9369 C   0  0  0  0  0  0
   14.6581   12.1115   36.4677 C   0  0  0  0  0  0
   15.6579   11.1943   36.1170 C   0  0  0  0  0  0
   15.3506    9.8557   35.8994 C   0  0  0  0  0  0
   14.0328    9.3978   36.0325 C   0  0  0  0  0  0
   13.0148   10.3142   36.3087 C   0  0  0  0  0  0
   13.3314   11.6526   36.5022 C   0  0  0  0  0  0
   11.7185    9.9287   36.3913 F   0  0  0  0  0  0
   13.7387    7.9572   35.7653 C   0  0  0  0  0  0
   14.2561    7.4282   34.7911 O   0  0  0  0  0  0
   12.9700    7.3010   36.6520 N   0  0  0  0  0  0
   12.6817    5.8569   36.5955 C   0  0  1  0  0  0
   13.5496    5.0845   37.6301 C   0  0  0  0  0  0
   15.0699    5.2845   37.4506 C   0  0  0  0  0  0
   15.9368    4.2310   38.1404 C   0  0  0  0  0  0
   16.9945    3.8285   37.6686 O   0  0  0  0  0  0
   15.4589    3.8443   39.3578 O   0  0  0  0  0  0
   11.1834    5.5609   36.7920 C   0  0  0  0  0  0
   10.3783    6.3563   37.2317 O   0  0  0  0  0  0
   10.9194    4.2817   36.3920 O   0  0  0  0  0  0
   13.5570   17.6264   33.3361 Br  0  0  0  0  0  0
   12.9246    5.4946   35.5939 H   0  0  0  0  0  0
   14.9801   16.3981   28.3898 H   0  0  0  0  0  0
   16.7436   16.2388   28.4087 H   0  0  0  0  0  0
   15.7231   14.8005   28.4220 H   0  0  0  0  0  0
   14.1908   17.2770   30.4745 H   0  0  0  0  0  0
   14.9021   15.9183   35.0685 H   0  0  0  0  0  0
   18.0942   13.0727   34.7314 H   0  0  0  0  0  0
   18.2916   13.5225   32.3263 H   0  0  0  0  0  0
   17.0884   13.3850   36.7908 H   0  0  0  0  0  0
   16.4461   14.9622   37.0944 H   0  0  0  0  0  0
   14.6155   15.0281   38.1553 H   0  0  0  0  0  0
   13.2177   14.5876   37.1729 H   0  0  0  0  0  0
   12.9114   12.3408   40.7925 H   0  0  0  0  0  0
   16.6929   11.4863   36.0440 H   0  0  0  0  0  0
   16.1507    9.1765   35.6359 H   0  0  0  0  0  0
   12.5199   12.3301   36.7126 H   0  0  0  0  0  0
   12.4720    7.8273   37.3543 H   0  0  0  0  0  0
   13.2739    5.4130   38.6343 H   0  0  0  0  0  0
   13.3237    4.0161   37.5915 H   0  0  0  0  0  0
   15.3186    5.2480   36.3883 H   0  0  0  0  0  0
   15.3635    6.2728   37.8030 H   0  0  0  0  0  0
   14.6213    4.2626   39.5650 H   0  0  0  0  0  0
   11.6924    3.8304   36.0408 H   0  0  0  0  0  0
  1  2  1  0  0  0
  1 38  1  0  0  0
  1 39  1  0  0  0
  1 40  1  0  0  0
  2 11  1  0  0  0
  2  3  2  0  0  0
  3  4  1  0  0  0
  3 41  1  0  0  0
  4  5  2  0  0  0
  4 36  1  0  0  0
  5 10  1  0  0  0
  5  6  1  0  0  0
  6  7  2  0  0  0
  6 42  1  0  0  0
  7  8  1  0  0  0
  7 12  1  0  0  0
  8  9  2  0  0  0
  8 43  1  0  0  0
  9 10  1  0  0  0
  9 44  1  0  0  0
 10 11  2  0  0  0
 12 13  1  0  0  0
 12 45  1  0  0  0
 12 46  1  0  0  0
 13 14  1  0  0  0
 13 17  1  0  0  0
 14 15  1  0  0  0
 14 47  1  0  0  0
 14 48  1  0  0  0
 15 16  3  0  0  0
 16 49  1  0  0  0
 17 22  1  0  0  0
 17 18  2  0  0  0
 18 19  1  0  0  0
 18 50  1  0  0  0
 19 20  2  0  0  0
 19 51  1  0  0  0
 20 21  1  0  0  0
 20 24  1  0  0  0
 21 22  2  0  0  0
 21 23  1  0  0  0
 22 52  1  0  0  0
 24 25  2  0  0  0
 24 26  1  0  0  0
 26 27  1  0  0  0
 26 53  1  0  0  0
 27 37  1  0  0  0
 27 28  1  0  0  0
 27 33  1  0  0  0
 28 29  1  0  0  0
 28 54  1  0  0  0
 28 55  1  0  0  0
 29 30  1  0  0  0
 29 56  1  0  0  0
 29 57  1  0  0  0
 30 31  2  0  0  0
 30 32  1  0  0  0
 32 58  1  0  0  0
 33 34  2  0  0  0
 33 35  1  0  0  0
 35 59  1  0  0  0
M  END
> <s_m_entry_id>
41769

> <s_m_entry_name>
ligand_docking-pose.129

> <s_m_Source_Path>
/home/csk/Desktop/cluster/DUD-E-result/tysy

> <s_m_Source_File>
ligand_docking-pose.sdf

> <i_m_Source_File_Index>
129

> <i_lp_mmshare_version>
53161

> <i_f3d_flags>
0

> <r_lp_tautomer_probability>
1

> <s_lp_Force_Field>
OPLS_2005

> <r_lp_Energy>
13.895744

> <b_lp_Chiralities_Consistent>
1

> <s_lp_Variant>
152072-1

> <s_i_glide_gridfile>
glide-grid_1syn

> <i_i_glide_lignum>
422

> <i_i_glide_rotatable_bonds>
14

> <r_i_docking_score>
-8.13950986906316

> <r_i_glide_ligand_efficiency>
-0.226097496362865

> <r_i_glide_ligand_efficiency_sa>
-0.746557483255632

> <r_i_glide_ligand_efficiency_ln>
-1.77582114928597

> <r_i_glide_gscore>
-8.13950986906316

> <r_i_glide_lipo>
-3.59589019531373

> <r_i_glide_hbond>
-0.311673220301851

> <r_i_glide_metal>
0

> <r_i_glide_rewards>
-0.878143585175931

> <r_i_glide_evdw>
-49.4577598571777

> <r_i_glide_ecoul>
-10.6699857711792

> <r_i_glide_erotb>
0.729396932667058

> <r_i_glide_esite>
-0.00981394240293185

> <r_i_glide_emodel>
-80.3736371857623

> <r_i_glide_energy>
-60.1277456283569

> <r_i_glide_einternal>
9.85104274749756

> <i_i_glide_confnum>
39

> <i_i_glide_posenum>
58

> <r_i_glide_eff_state_penalty>
0

> <s_user_duplicate_titles>
152072

> <s_m_subgroup_title>
dock_pv

> <s_m_subgroupid>
dock_pv1

> <b_m_subgroup_collapsed>
0

$$$$
170302
                    3D
 Schrodinger Suite 2021-1.
 60 62  0  0  1  0            999 V2000
   12.3631   19.0275   28.7912 C   0  0  0  0  0  0
   13.1690   17.8516   28.7088 O   0  0  0  0  0  0
   13.8006   17.4201   29.8493 C   0  0  0  0  0  0
   14.6602   16.4856   29.6958 N   0  0  0  0  0  0
   15.4061   16.0622   30.8066 C   0  0  0  0  0  0
   16.3817   15.0872   30.6171 C   0  0  0  0  0  0
   17.2042   14.7124   31.6818 C   0  0  0  0  0  0
   17.0390   15.2993   32.9459 C   0  0  0  0  0  0
   16.0349   16.2497   33.1494 C   0  0  0  0  0  0
   15.2317   16.6294   32.0745 C   0  0  0  0  0  0
   14.1596   17.6763   32.2406 C   0  0  0  0  0  0
   13.5317   17.9610   31.0791 N   0  0  0  0  0  0
   13.8529   18.2277   33.2905 O   0  0  0  0  0  0
   17.9836   14.9528   34.0877 C   0  0  0  0  0  0
   17.7844   13.5763   34.5526 N   0  0  0  0  0  0
   18.6699   12.5738   33.9341 C   0  0  0  0  0  0
   19.1234   11.5232   34.8560 C   0  0  0  0  0  0
   19.4897   10.6259   35.5910 C   0  0  0  0  0  0
   16.6303   13.2300   35.3201 C   0  0  0  0  0  0
   15.9283   14.1895   36.0649 C   0  0  0  0  0  0
   14.8728   13.8257   36.8995 C   0  0  0  0  0  0
   14.4756   12.4827   37.0120 C   0  0  0  0  0  0
   15.1216   11.5293   36.2185 C   0  0  0  0  0  0
   16.1663   11.9077   35.3908 C   0  0  0  0  0  0
   14.7607   10.2233   36.2340 F   0  0  0  0  0  0
   13.4110   12.0563   37.9904 C   0  0  0  0  0  0
   13.4422   10.9447   38.5237 O   0  0  0  0  0  0
   12.4775   12.9745   38.2800 N   0  0  0  0  0  0
   11.3928   12.8155   39.2551 C   0  0  1  0  0  0
   11.8509   13.3611   40.6494 C   0  0  0  0  0  0
   13.1408   12.6872   41.1919 C   0  0  0  0  0  0
   13.5241   13.0494   42.6248 C   0  0  0  0  0  0
   13.1775   14.0799   43.1958 O   0  0  0  0  0  0
   14.2988   12.0787   43.1910 O   0  0  0  0  0  0
   10.1015   13.4285   38.6596 C   0  0  0  0  0  0
    9.9044   13.5741   37.4709 O   0  0  0  0  0  0
    9.2290   13.8280   39.6236 O   0  0  0  0  0  0
   11.1679   11.7524   39.3599 H   0  0  0  0  0  0
   12.1912   19.4229   27.7895 H   0  0  0  0  0  0
   11.3916   18.8013   29.2293 H   0  0  0  0  0  0
   12.8306   19.8283   29.3643 H   0  0  0  0  0  0
   16.5197   14.6461   29.6412 H   0  0  0  0  0  0
   17.9819   13.9799   31.5161 H   0  0  0  0  0  0
   15.9002   16.7059   34.1210 H   0  0  0  0  0  0
   12.8284   18.6761   31.1572 H   0  0  0  0  0  0
   19.0012   15.0851   33.7147 H   0  0  0  0  0  0
   17.9072   15.6660   34.9058 H   0  0  0  0  0  0
   18.1913   12.0861   33.0867 H   0  0  0  0  0  0
   19.5815   13.0323   33.5461 H   0  0  0  0  0  0
   19.7924    9.8295   36.2298 H   0  0  0  0  0  0
   16.2210   15.2266   36.0628 H   0  0  0  0  0  0
   14.4126   14.6010   37.4968 H   0  0  0  0  0  0
   16.6060   11.1290   34.7922 H   0  0  0  0  0  0
   12.4402   13.8141   37.7222 H   0  0  0  0  0  0
   12.0226   14.4367   40.5827 H   0  0  0  0  0  0
   11.0505   13.2277   41.3770 H   0  0  0  0  0  0
   13.0279   11.6036   41.1344 H   0  0  0  0  0  0
   13.9969   12.9426   40.5683 H   0  0  0  0  0  0
   14.5675   12.2306   44.1095 H   0  0  0  0  0  0
    8.5110   14.3043   39.1922 H   0  0  0  0  0  0
  1  2  1  0  0  0
  1 39  1  0  0  0
  1 40  1  0  0  0
  1 41  1  0  0  0
  2  3  1  0  0  0
  3  4  2  0  0  0
  3 12  1  0  0  0
  4  5  1  0  0  0
  5 10  2  0  0  0
  5  6  1  0  0  0
  6  7  2  0  0  0
  6 42  1  0  0  0
  7  8  1  0  0  0
  7 43  1  0  0  0
  8  9  2  0  0  0
  8 14  1  0  0  0
  9 10  1  0  0  0
  9 44  1  0  0  0
 10 11  1  0  0  0
 11 13  2  0  0  0
 11 12  1  0  0  0
 12 45  1  0  0  0
 14 15  1  0  0  0
 14 46  1  0  0  0
 14 47  1  0  0  0
 15 16  1  0  0  0
 15 19  1  0  0  0
 16 17  1  0  0  0
 16 48  1  0  0  0
 16 49  1  0  0  0
 17 18  3  0  0  0
 18 50  1  0  0  0
 19 24  1  0  0  0
 19 20  2  0  0  0
 20 21  1  0  0  0
 20 51  1  0  0  0
 21 22  2  0  0  0
 21 52  1  0  0  0
 22 23  1  0  0  0
 22 26  1  0  0  0
 23 24  2  0  0  0
 23 25  1  0  0  0
 24 53  1  0  0  0
 26 27  2  0  0  0
 26 28  1  0  0  0
 28 29  1  0  0  0
 28 54  1  0  0  0
 29 38  1  0  0  0
 29 30  1  0  0  0
 29 35  1  0  0  0
 30 31  1  0  0  0
 30 55  1  0  0  0
 30 56  1  0  0  0
 31 32  1  0  0  0
 31 57  1  0  0  0
 31 58  1  0  0  0
 32 33  2  0  0  0
 32 34  1  0  0  0
 34 59  1  0  0  0
 35 36  2  0  0  0
 35 37  1  0  0  0
 37 60  1  0  0  0
M  END
> <s_m_entry_id>
41772

> <s_m_entry_name>
ligand_docking-pose.132

> <s_m_Source_Path>
/home/csk/Desktop/cluster/DUD-E-result/tysy

> <s_m_Source_File>
ligand_docking-pose.sdf

> <i_m_Source_File_Index>
132

> <i_lp_mmshare_version>
53161

> <i_f3d_flags>
0

> <r_lp_tautomer_probability>
0.883938

> <s_lp_Force_Field>
OPLS_2005

> <r_lp_Energy>
25.984078

> <b_lp_Chiralities_Consistent>
1

> <s_lp_Variant>
170302-1

> <s_i_glide_gridfile>
glide-grid_1syn

> <i_i_glide_lignum>
976

> <i_i_glide_rotatable_bonds>
15

> <r_i_docking_score>
-8.13164688745506

> <r_i_glide_ligand_efficiency>
-0.219774240201488

> <r_i_glide_ligand_efficiency_sa>
-0.732336524746817

> <r_i_glide_ligand_efficiency_ln>
-1.76356357703879

> <r_i_glide_gscore>
-8.13164688745506

> <r_i_glide_lipo>
-3.32756728240542

> <r_i_glide_hbond>
0

> <r_i_glide_metal>
0

> <r_i_glide_rewards>
-0.951612989172513

> <r_i_glide_evdw>
-62.120231628418

> <r_i_glide_ecoul>
-11.2659196853638

> <r_i_glide_erotb>
0.943432918348331

> <r_i_glide_esite>
0

> <r_i_glide_emodel>
-105.288098723839

> <r_i_glide_energy>
-73.3861513137817

> <r_i_glide_einternal>
10.1607332229614

> <i_i_glide_confnum>
42

> <i_i_glide_posenum>
364

> <r_i_glide_eff_state_penalty>
0

> <s_user_duplicate_titles>
170302

> <s_m_subgroup_title>
dock_pv

> <s_m_subgroupid>
dock_pv1

> <b_m_subgroup_collapsed>
0

$$$$
282701
                    3D
 Schrodinger Suite 2021-1.
 76 78  0  0  1  0            999 V2000
   12.2888   10.3008   40.9222 C   0  0  0  0  0  0
   12.6077    9.4410   39.7119 C   0  0  0  0  0  0
   13.1730    8.1762   39.9139 C   0  0  0  0  0  0
   13.5313    7.3880   38.8255 C   0  0  0  0  0  0
   13.2996    7.8544   37.5292 C   0  0  0  0  0  0
   12.6882    9.0869   37.3081 C   0  0  0  0  0  0
   12.3662    9.8998   38.4011 C   0  0  0  0  0  0
   11.8269   11.3018   38.1196 C   0  0  0  0  0  0
   12.7866   12.3838   38.4130 N   0  0  0  0  0  0
   12.1462   13.6342   38.8196 C   0  0  0  0  0  0
   13.9207   12.4872   37.5590 C   0  0  0  0  0  0
   14.8375   11.4336   37.4853 C   0  0  0  0  0  0
   15.9326   11.4857   36.6352 C   0  0  0  0  0  0
   16.1751   12.6213   35.8615 C   0  0  0  0  0  0
   15.2914   13.7060   35.9589 C   0  0  0  0  0  0
   14.1767   13.6336   36.7904 C   0  0  0  0  0  0
   17.4099   12.6656   34.9947 C   0  0  0  0  0  0
   18.3376   11.8779   35.1890 O   0  0  0  0  0  0
   17.4345   13.5963   34.0218 N   0  0  0  0  0  0
   18.6109   13.9128   33.2037 C   0  0  1  0  0  0
   18.2737   14.8438   32.0088 C   0  0  0  0  0  0
   17.1991   14.3065   31.0214 C   0  0  0  0  0  0
   15.9166   15.1330   30.8208 C   0  0  0  0  0  0
   15.1926   14.8525   29.8683 O   0  0  0  0  0  0
   15.6021   16.0786   31.7289 N   0  0  0  0  0  0
   14.3703   16.8808   31.8191 C   0  0  2  0  0  0
   14.1070   17.6404   30.4902 C   0  0  0  0  0  0
   12.8562   18.5435   30.4344 C   0  0  0  0  0  0
   12.7056   19.2050   29.0662 C   0  0  0  0  0  0
   13.3926   18.9290   28.0846 O   0  0  0  0  0  0
   11.7922   20.2131   29.0791 O   0  0  0  0  0  0
   14.4636   17.8199   33.0491 C   0  0  0  0  0  0
   15.5048   18.1316   33.5900 O   0  0  0  0  0  0
   13.2249   18.2286   33.4480 O   0  0  0  0  0  0
   19.6285   14.5961   34.1384 C   0  0  0  0  0  0
   19.3915   15.6614   34.6699 O   0  0  0  0  0  0
   20.7451   13.8304   34.3403 O   0  0  0  0  0  0
   13.7935    7.0151   36.3786 C   0  0  0  0  0  0
   14.3186    5.8364   36.7913 N   0  0  0  0  0  0
   14.4939    5.4143   38.0785 C   0  0  0  0  0  0
   14.1516    6.1499   39.0712 N   0  0  0  0  0  0
   15.1579    4.0755   38.3049 C   0  0  0  0  0  0
   13.7923    7.3410   35.1929 O   0  0  0  0  0  0
   19.0164   12.9803   32.8069 H   0  0  0  0  0  0
   13.5507   16.1828   31.9924 H   0  0  0  0  0  0
   12.2166    9.7075   41.8345 H   0  0  0  0  0  0
   13.0556   11.0659   41.0516 H   0  0  0  0  0  0
   11.3325   10.8027   40.7904 H   0  0  0  0  0  0
   13.3643    7.8045   40.9087 H   0  0  0  0  0  0
   12.5286    9.4431   36.2981 H   0  0  0  0  0  0
   10.8967   11.4389   38.6715 H   0  0  0  0  0  0
   11.5444   11.3731   37.0678 H   0  0  0  0  0  0
   11.5541   14.0484   38.0040 H   0  0  0  0  0  0
   11.4953   13.4780   39.6795 H   0  0  0  0  0  0
   12.8928   14.3722   39.1158 H   0  0  0  0  0  0
   14.7425   10.5677   38.1157 H   0  0  0  0  0  0
   16.6118   10.6447   36.6131 H   0  0  0  0  0  0
   15.4533   14.6174   35.4020 H   0  0  0  0  0  0
   13.5146   14.4836   36.8180 H   0  0  0  0  0  0
   16.6319   14.1893   33.8944 H   0  0  0  0  0  0
   19.1845   15.0275   31.4329 H   0  0  0  0  0  0
   18.0070   15.8287   32.3902 H   0  0  0  0  0  0
   16.8780   13.3108   31.3298 H   0  0  0  0  0  0
   17.6538   14.1449   30.0452 H   0  0  0  0  0  0
   16.2579   16.2716   32.4723 H   0  0  0  0  0  0
   13.9975   16.9268   29.6759 H   0  0  0  0  0  0
   14.9910   18.2285   30.2483 H   0  0  0  0  0  0
   12.9320   19.3435   31.1712 H   0  0  0  0  0  0
   11.9566   17.9706   30.6585 H   0  0  0  0  0  0
   11.1637   20.1868   29.8108 H   0  0  0  0  0  0
   13.2780   18.8916   34.1464 H   0  0  0  0  0  0
   20.8276   13.0355   33.7859 H   0  0  0  0  0  0
   14.7610    3.5846   39.1946 H   0  0  0  0  0  0
   14.9954    3.4026   37.4619 H   0  0  0  0  0  0
   16.2358    4.1969   38.4352 H   0  0  0  0  0  0
   14.5391    5.1951   36.0434 H   0  0  0  0  0  0
  1 46  1  0  0  0
  1 47  1  0  0  0
  1 48  1  0  0  0
  1  2  1  0  0  0
  2  7  1  0  0  0
  2  3  2  0  0  0
  3 49  1  0  0  0
  3  4  1  0  0  0
  4  5  2  0  0  0
  4 41  1  0  0  0
  5 38  1  0  0  0
  5  6  1  0  0  0
  6 50  1  0  0  0
  6  7  2  0  0  0
  7  8  1  0  0  0
  8  9  1  0  0  0
  8 51  1  0  0  0
  8 52  1  0  0  0
  9 10  1  0  0  0
  9 11  1  0  0  0
 10 53  1  0  0  0
 10 54  1  0  0  0
 10 55  1  0  0  0
 11 16  1  0  0  0
 11 12  2  0  0  0
 12 13  1  0  0  0
 12 56  1  0  0  0
 13 14  2  0  0  0
 13 57  1  0  0  0
 14 15  1  0  0  0
 14 17  1  0  0  0
 15 16  2  0  0  0
 15 58  1  0  0  0
 16 59  1  0  0  0
 17 18  2  0  0  0
 17 19  1  0  0  0
 19 20  1  0  0  0
 19 60  1  0  0  0
 20 44  1  0  0  0
 20 21  1  0  0  0
 20 35  1  0  0  0
 21 22  1  0  0  0
 21 61  1  0  0  0
 21 62  1  0  0  0
 22 23  1  0  0  0
 22 63  1  0  0  0
 22 64  1  0  0  0
 23 24  2  0  0  0
 23 25  1  0  0  0
 25 26  1  0  0  0
 25 65  1  0  0  0
 26 45  1  0  0  0
 26 27  1  0  0  0
 26 32  1  0  0  0
 27 28  1  0  0  0
 27 66  1  0  0  0
 27 67  1  0  0  0
 28 29  1  0  0  0
 28 68  1  0  0  0
 28 69  1  0  0  0
 29 30  2  0  0  0
 29 31  1  0  0  0
 31 70  1  0  0  0
 32 33  2  0  0  0
 32 34  1  0  0  0
 34 71  1  0  0  0
 35 36  2  0  0  0
 35 37  1  0  0  0
 37 72  1  0  0  0
 38 43  2  0  0  0
 38 39  1  0  0  0
 39 40  1  0  0  0
 39 76  1  0  0  0
 40 41  2  0  0  0
 40 42  1  0  0  0
 42 73  1  0  0  0
 42 74  1  0  0  0
 42 75  1  0  0  0
M  END
> <s_m_entry_id>
41773

> <s_m_entry_name>
ligand_docking-pose.133

> <s_m_Source_Path>
/home/csk/Desktop/cluster/DUD-E-result/tysy

> <s_m_Source_File>
ligand_docking-pose.sdf

> <i_m_Source_File_Index>
133

> <i_lp_mmshare_version>
53161

> <i_f3d_flags>
0

> <r_lp_tautomer_probability>
0.883938

> <s_lp_Force_Field>
OPLS_2005

> <r_lp_Energy>
23.293932

> <b_lp_Chiralities_Consistent>
1

> <s_lp_Variant>
282701-1

> <s_i_glide_gridfile>
glide-grid_1syn

> <i_i_glide_lignum>
171

> <i_i_glide_rotatable_bonds>
19

> <r_i_docking_score>
-8.12927315396663

> <r_i_glide_ligand_efficiency>
-0.189052864045736

> <r_i_glide_ligand_efficiency_sa>
-0.662327436378003

> <r_i_glide_ligand_efficiency_ln>
-1.70740001605298

> <r_i_glide_gscore>
-8.12927315396663

> <r_i_glide_lipo>
-2.10703013448488

> <r_i_glide_hbond>
-0.565112779617194

> <r_i_glide_metal>
0

> <r_i_glide_rewards>
-0.677964145941133

> <r_i_glide_evdw>
-60.3915023803711

> <r_i_glide_ecoul>
-16.7187061309814

> <r_i_glide_erotb>
0.833106144318107

> <r_i_glide_esite>
-0.0848911995757596

> <r_i_glide_emodel>
-110.46270986279

> <r_i_glide_energy>
-77.1102085113525

> <r_i_glide_einternal>
9.930100440979

> <i_i_glide_confnum>
58

> <i_i_glide_posenum>
270

> <r_i_glide_eff_state_penalty>
0

> <s_user_duplicate_titles>
282701

> <s_m_subgroup_title>
dock_pv

> <s_m_subgroupid>
dock_pv1

> <b_m_subgroup_collapsed>
0

$$$$
121082
                    3D
 Schrodinger Suite 2021-1.
 57 59  0  0  1  0            999 V2000
   12.8287   17.9205   29.0186 C   0  0  0  0  0  0
   13.7123   17.4016   30.1255 C   0  0  0  0  0  0
   14.5681   16.4693   29.9100 N   0  0  0  0  0  0
   15.3933   16.0326   30.9620 C   0  0  0  0  0  0
   16.3429   15.0436   30.7090 C   0  0  0  0  0  0
   17.2182   14.6407   31.7239 C   0  0  0  0  0  0
   17.1373   15.2164   33.0017 C   0  0  0  0  0  0
   16.1631   16.1834   33.2623 C   0  0  0  0  0  0
   15.3064   16.5915   32.2413 C   0  0  0  0  0  0
   14.2692   17.6603   32.4814 C   0  0  0  0  0  0
   13.5622   17.9543   31.3659 N   0  0  0  0  0  0
   14.0590   18.2282   33.5471 O   0  0  0  0  0  0
   18.1439   14.8517   34.0901 C   0  0  0  0  0  0
   18.0358   13.4483   34.5075 N   0  0  0  0  0  0
   18.9921   12.5078   33.9273 C   0  0  0  0  0  0
   16.9896   12.9828   35.3472 C   0  0  0  0  0  0
   16.1101   13.8761   35.9706 C   0  0  0  0  0  0
   15.0859   13.4290   36.7957 C   0  0  0  0  0  0
   14.8977   12.0574   37.0239 C   0  0  0  0  0  0
   15.7670   11.1512   36.4037 C   0  0  0  0  0  0
   16.8002   11.6134   35.5909 C   0  0  0  0  0  0
   15.6407    9.8154   36.5924 F   0  0  0  0  0  0
   13.8281   11.5773   37.9698 C   0  0  0  0  0  0
   14.0730   10.7376   38.8362 O   0  0  0  0  0  0
   12.6397   12.1852   37.8287 N   0  0  0  0  0  0
   11.4520   12.0808   38.6843 C   0  0  1  0  0  0
   11.7890   12.3701   40.1828 C   0  0  0  0  0  0
   12.6246   13.6497   40.4420 C   0  0  0  0  0  0
   12.4083   14.2281   41.8369 C   0  0  0  0  0  0
   13.2517   14.2267   42.7295 O   0  0  0  0  0  0
   11.1557   14.7378   41.9910 O   0  0  0  0  0  0
   10.3598   13.0341   38.1409 C   0  0  0  0  0  0
   10.5139   13.8037   37.2149 O   0  0  0  0  0  0
    9.2037   12.8889   38.8459 O   0  0  0  0  0  0
   14.2892   14.3521   37.3844 F   0  0  0  0  0  0
   11.0656   11.0647   38.5896 H   0  0  0  0  0  0
   11.7899   17.6357   29.1911 H   0  0  0  0  0  0
   12.8719   19.0084   28.9606 H   0  0  0  0  0  0
   13.1310   17.5287   28.0465 H   0  0  0  0  0  0
   16.4131   14.6072   29.7241 H   0  0  0  0  0  0
   17.9708   13.8927   31.5133 H   0  0  0  0  0  0
   16.0791   16.6281   34.2417 H   0  0  0  0  0  0
   12.8798   18.6830   31.4968 H   0  0  0  0  0  0
   18.0639   15.5144   34.9520 H   0  0  0  0  0  0
   19.1373   15.0504   33.6836 H   0  0  0  0  0  0
   19.4512   11.8833   34.6946 H   0  0  0  0  0  0
   18.5051   11.8483   33.2085 H   0  0  0  0  0  0
   19.7919   13.0280   33.4016 H   0  0  0  0  0  0
   16.2078   14.9407   35.8443 H   0  0  0  0  0  0
   17.4516   10.8774   35.1473 H   0  0  0  0  0  0
   12.5443   12.8593   37.0818 H   0  0  0  0  0  0
   12.3376   11.5192   40.5888 H   0  0  0  0  0  0
   10.8684   12.3848   40.7676 H   0  0  0  0  0  0
   12.3689   14.4178   39.7158 H   0  0  0  0  0  0
   13.6856   13.4428   40.2983 H   0  0  0  0  0  0
   10.9919   15.0534   42.8958 H   0  0  0  0  0  0
    8.5417   13.4882   38.4904 H   0  0  0  0  0  0
  1 37  1  0  0  0
  1 38  1  0  0  0
  1 39  1  0  0  0
  1  2  1  0  0  0
  2  3  2  0  0  0
  2 11  1  0  0  0
  3  4  1  0  0  0
  4  9  2  0  0  0
  4  5  1  0  0  0
  5  6  2  0  0  0
  5 40  1  0  0  0
  6  7  1  0  0  0
  6 41  1  0  0  0
  7  8  2  0  0  0
  7 13  1  0  0  0
  8  9  1  0  0  0
  8 42  1  0  0  0
  9 10  1  0  0  0
 10 12  2  0  0  0
 10 11  1  0  0  0
 11 43  1  0  0  0
 13 14  1  0  0  0
 13 44  1  0  0  0
 13 45  1  0  0  0
 14 15  1  0  0  0
 14 16  1  0  0  0
 15 46  1  0  0  0
 15 47  1  0  0  0
 15 48  1  0  0  0
 16 21  1  0  0  0
 16 17  2  0  0  0
 17 18  1  0  0  0
 17 49  1  0  0  0
 18 19  2  0  0  0
 18 35  1  0  0  0
 19 20  1  0  0  0
 19 23  1  0  0  0
 20 21  2  0  0  0
 20 22  1  0  0  0
 21 50  1  0  0  0
 23 24  2  0  0  0
 23 25  1  0  0  0
 25 26  1  0  0  0
 25 51  1  0  0  0
 26 36  1  0  0  0
 26 27  1  0  0  0
 26 32  1  0  0  0
 27 28  1  0  0  0
 27 52  1  0  0  0
 27 53  1  0  0  0
 28 29  1  0  0  0
 28 54  1  0  0  0
 28 55  1  0  0  0
 29 30  2  0  0  0
 29 31  1  0  0  0
 31 56  1  0  0  0
 32 33  2  0  0  0
 32 34  1  0  0  0
 34 57  1  0  0  0
M  END
> <s_m_entry_id>
41774

> <s_m_entry_name>
ligand_docking-pose.134

> <s_m_Source_Path>
/home/csk/Desktop/cluster/DUD-E-result/tysy

> <s_m_Source_File>
ligand_docking-pose.sdf

> <i_m_Source_File_Index>
134

> <i_lp_mmshare_version>
53161

> <i_f3d_flags>
0

> <r_lp_tautomer_probability>
0.883938

> <s_lp_Force_Field>
OPLS_2005

> <r_lp_Energy>
23.655223

> <b_lp_Chiralities_Consistent>
1

> <s_lp_Variant>
121082-1

> <s_i_glide_gridfile>
glide-grid_1syn

> <i_i_glide_lignum>
494

> <i_i_glide_rotatable_bonds>
12

> <r_i_docking_score>
-8.12686070492316

> <r_i_glide_ligand_efficiency>
-0.232196020140662

> <r_i_glide_ligand_efficiency_sa>
-0.75952857794186

> <r_i_glide_ligand_efficiency_ln>
-1.78402629068612

> <r_i_glide_gscore>
-8.12686070492316

> <r_i_glide_lipo>
-3.56935234808329

> <r_i_glide_hbond>
-0.0203899275207959

> <r_i_glide_metal>
0

> <r_i_glide_rewards>
-0.96793415163095

> <r_i_glide_evdw>
-57.4027709960938

> <r_i_glide_ecoul>
-10.3361988067627

> <r_i_glide_erotb>
0.852415613553723

> <r_i_glide_esite>
-0.00103152042275513

> <r_i_glide_emodel>
-98.3693916525447

> <r_i_glide_energy>
-67.7389698028564

> <r_i_glide_einternal>
7.78424835205078

> <i_i_glide_confnum>
34

> <i_i_glide_posenum>
373

> <r_i_glide_eff_state_penalty>
0

> <s_user_duplicate_titles>
121082

> <s_m_subgroup_title>
dock_pv

> <s_m_subgroupid>
dock_pv1

> <b_m_subgroup_collapsed>
0

$$$$
281846
                    3D
 Schrodinger Suite 2021-1.
 76 78  0  0  1  0            999 V2000
   13.0200   10.0107   39.8952 C   0  0  0  0  0  0
   13.0424   11.5247   39.6357 C   0  0  0  0  0  0
   12.6504   11.8915   38.2721 N   0  0  0  0  0  0
   11.2206   11.9951   37.9381 C   0  0  0  0  0  0
   10.8569   11.4209   36.5605 C   0  0  0  0  0  0
   11.6033   10.3862   35.9767 C   0  0  0  0  0  0
   11.2626    9.8774   34.7254 C   0  0  0  0  0  0
   10.1539   10.3788   34.0566 C   0  0  0  0  0  0
    9.3743   11.3875   34.6328 C   0  0  0  0  0  0
    9.7281   11.9112   35.8877 C   0  0  0  0  0  0
    8.1456   11.8969   33.8840 C   0  0  0  0  0  0
    7.9503   11.3580   32.6045 N   0  0  0  0  0  0
    8.7152   10.4551   32.1234 C   0  0  0  0  0  0
    9.7916    9.9095   32.7908 N   0  0  0  0  0  0
    8.4617    9.9477   30.7179 C   0  0  0  0  0  0
    7.4120   12.7263   34.4213 O   0  0  0  0  0  0
   13.6292   12.4964   37.4485 C   0  0  0  0  0  0
   13.3775   13.6995   36.7819 C   0  0  0  0  0  0
   14.3495   14.2668   35.9630 C   0  0  0  0  0  0
   15.5753   13.6221   35.7548 C   0  0  0  0  0  0
   15.8266   12.4185   36.4278 C   0  0  0  0  0  0
   14.8656   11.8692   37.2719 C   0  0  0  0  0  0
   16.5874   14.2300   34.8061 C   0  0  0  0  0  0
   16.5049   15.4164   34.4901 O   0  0  0  0  0  0
   17.5049   13.3908   34.2844 N   0  0  0  0  0  0
   18.6480   13.7433   33.4222 C   0  0  1  0  0  0
   18.3062   14.5918   32.1602 C   0  0  0  0  0  0
   17.1833   14.0309   31.2585 C   0  0  0  0  0  0
   16.1034   15.0281   30.8085 C   0  0  0  0  0  0
   15.6671   14.9269   29.6642 O   0  0  0  0  0  0
   15.6327   15.9078   31.7194 N   0  0  0  0  0  0
   14.4846   16.8312   31.6069 C   0  0  2  0  0  0
   14.4383   17.5552   30.2301 C   0  0  0  0  0  0
   13.3772   17.0416   29.2460 C   0  0  0  0  0  0
   11.9494   17.4385   29.5911 C   0  0  0  0  0  0
   11.0273   16.6284   29.5905 O   0  0  0  0  0  0
   11.7921   18.7783   29.7824 O   0  0  0  0  0  0
   14.4817   17.8482   32.7779 C   0  0  0  0  0  0
   15.3935   18.0067   33.5617 O   0  0  0  0  0  0
   13.3059   18.5429   32.8020 O   0  0  0  0  0  0
   19.6703   14.5055   34.2747 C   0  0  0  0  0  0
   19.3964   15.5677   34.7910 O   0  0  0  0  0  0
   20.8544   13.8288   34.3911 O   0  0  0  0  0  0
   19.0713   12.7945   33.0948 H   0  0  0  0  0  0
   13.5888   16.2211   31.7291 H   0  0  0  0  0  0
   13.2238    9.7981   40.9480 H   0  0  0  0  0  0
   12.0514    9.5739   39.6484 H   0  0  0  0  0  0
   13.7752    9.4884   39.3129 H   0  0  0  0  0  0
   14.0326   11.9240   39.8782 H   0  0  0  0  0  0
   12.3680   12.0248   40.3311 H   0  0  0  0  0  0
   10.6313   11.4738   38.6935 H   0  0  0  0  0  0
   10.9093   13.0407   37.9936 H   0  0  0  0  0  0
   12.4587    9.9740   36.4921 H   0  0  0  0  0  0
   11.8539    9.0878   34.2803 H   0  0  0  0  0  0
    9.1284   12.6872   36.3438 H   0  0  0  0  0  0
    7.5351   10.3403   30.2959 H   0  0  0  0  0  0
    9.2753   10.2372   30.0478 H   0  0  0  0  0  0
    8.3923    8.8599   30.6997 H   0  0  0  0  0  0
   10.3493    9.2114   32.3219 H   0  0  0  0  0  0
   12.4366   14.2130   36.9059 H   0  0  0  0  0  0
   14.1256   15.2016   35.4701 H   0  0  0  0  0  0
   16.7681   11.8989   36.3191 H   0  0  0  0  0  0
   15.0795   10.9358   37.7710 H   0  0  0  0  0  0
   17.4672   12.4241   34.5642 H   0  0  0  0  0  0
   19.2040   14.6816   31.5420 H   0  0  0  0  0  0
   18.0970   15.6252   32.4442 H   0  0  0  0  0  0
   16.6668   13.2107   31.7517 H   0  0  0  0  0  0
   17.6297   13.5427   30.3907 H   0  0  0  0  0  0
   16.0515   15.9035   32.6454 H   0  0  0  0  0  0
   15.3943   17.4539   29.7310 H   0  0  0  0  0  0
   14.3105   18.6272   30.3584 H   0  0  0  0  0  0
   13.4255   15.9552   29.1906 H   0  0  0  0  0  0
   13.5915   17.4186   28.2451 H   0  0  0  0  0  0
   10.8658   19.0385   29.9178 H   0  0  0  0  0  0
   13.2959   19.2020   33.5057 H   0  0  0  0  0  0
   20.9651   13.0565   33.8075 H   0  0  0  0  0  0
  1  2  1  0  0  0
  1 46  1  0  0  0
  1 47  1  0  0  0
  1 48  1  0  0  0
  2  3  1  0  0  0
  2 49  1  0  0  0
  2 50  1  0  0  0
  3  4  1  0  0  0
  3 17  1  0  0  0
  4 51  1  0  0  0
  4 52  1  0  0  0
  4  5  1  0  0  0
  5 10  2  0  0  0
  5  6  1  0  0  0
  6 53  1  0  0  0
  6  7  2  0  0  0
  7 54  1  0  0  0
  7  8  1  0  0  0
  8  9  2  0  0  0
  8 14  1  0  0  0
  9 11  1  0  0  0
  9 10  1  0  0  0
 10 55  1  0  0  0
 11 16  2  0  0  0
 11 12  1  0  0  0
 12 13  2  0  0  0
 13 14  1  0  0  0
 13 15  1  0  0  0
 14 59  1  0  0  0
 15 56  1  0  0  0
 15 57  1  0  0  0
 15 58  1  0  0  0
 17 22  1  0  0  0
 17 18  2  0  0  0
 18 19  1  0  0  0
 18 60  1  0  0  0
 19 20  2  0  0  0
 19 61  1  0  0  0
 20 21  1  0  0  0
 20 23  1  0  0  0
 21 22  2  0  0  0
 21 62  1  0  0  0
 22 63  1  0  0  0
 23 24  2  0  0  0
 23 25  1  0  0  0
 25 26  1  0  0  0
 25 64  1  0  0  0
 26 44  1  0  0  0
 26 27  1  0  0  0
 26 41  1  0  0  0
 27 28  1  0  0  0
 27 65  1  0  0  0
 27 66  1  0  0  0
 28 29  1  0  0  0
 28 67  1  0  0  0
 28 68  1  0  0  0
 29 30  2  0  0  0
 29 31  1  0  0  0
 31 32  1  0  0  0
 31 69  1  0  0  0
 32 45  1  0  0  0
 32 33  1  0  0  0
 32 38  1  0  0  0
 33 34  1  0  0  0
 33 70  1  0  0  0
 33 71  1  0  0  0
 34 35  1  0  0  0
 34 72  1  0  0  0
 34 73  1  0  0  0
 35 36  2  0  0  0
 35 37  1  0  0  0
 37 74  1  0  0  0
 38 39  2  0  0  0
 38 40  1  0  0  0
 40 75  1  0  0  0
 41 42  2  0  0  0
 41 43  1  0  0  0
 43 76  1  0  0  0
M  END
> <s_m_entry_id>
41776

> <s_m_entry_name>
ligand_docking-pose.136

> <s_m_Source_Path>
/home/csk/Desktop/cluster/DUD-E-result/tysy

> <s_m_Source_File>
ligand_docking-pose.sdf

> <i_m_Source_File_Index>
136

> <i_lp_mmshare_version>
53161

> <i_f3d_flags>
0

> <r_lp_tautomer_probability>
0.116051

> <s_lp_Force_Field>
OPLS_2005

> <r_lp_Energy>
17.795971

> <b_lp_Chiralities_Consistent>
1

> <s_lp_Variant>
281846-2

> <s_i_glide_gridfile>
glide-grid_1syn

> <i_i_glide_lignum>
844

> <i_i_glide_rotatable_bonds>
20

> <r_i_docking_score>
-8.11829658105909

> <r_i_glide_ligand_efficiency>
-0.188797594908351

> <r_i_glide_ligand_efficiency_sa>
-0.661433126978335

> <r_i_glide_ligand_efficiency_ln>
-1.70509459459603

> <r_i_glide_gscore>
-8.11829658105909

> <r_i_glide_lipo>
-2.18713302708469

> <r_i_glide_hbond>
-0.254941441849516

> <r_i_glide_metal>
0

> <r_i_glide_rewards>
-0.948161269020199

> <r_i_glide_evdw>
-57.9619445800781

> <r_i_glide_ecoul>
-17.442289352417

> <r_i_glide_erotb>
0.833106144318107

> <r_i_glide_esite>
-0.0467263555563378

> <r_i_glide_emodel>
-105.127777362913

> <r_i_glide_energy>
-75.4042339324951

> <r_i_glide_einternal>
15.5209808349609

> <i_i_glide_confnum>
33

> <i_i_glide_posenum>
137

> <r_i_glide_eff_state_penalty>
0

> <s_user_duplicate_titles>
281846

> <s_m_subgroup_title>
dock_pv

> <s_m_subgroupid>
dock_pv1

> <b_m_subgroup_collapsed>
0

$$$$
207226
                    3D
 Schrodinger Suite 2021-1.
 62 65  0  0  1  0            999 V2000
   18.3467   13.6348   33.3849 C   0  0  0  0  0  0
   17.1808   14.5920   33.1862 C   0  0  0  0  0  0
   16.8691   14.9906   31.8791 C   0  0  0  0  0  0
   15.7985   15.8448   31.6439 C   0  0  0  0  0  0
   15.0728   16.3736   32.7131 C   0  0  0  0  0  0
   15.3849   15.9876   34.0188 C   0  0  0  0  0  0
   16.3968   15.0502   34.2680 C   0  0  0  0  0  0
   16.6019   14.5571   35.7098 C   0  0  0  0  0  0
   15.4223   13.8297   36.2251 N   0  0  0  0  0  0
   14.3048   14.6284   36.7593 C   0  0  0  0  0  0
   13.8225   14.2277   38.1067 C   0  0  0  0  0  0
   13.3924   13.8281   39.1779 C   0  0  0  0  0  0
   15.3062   12.4155   36.1432 C   0  0  0  0  0  0
   16.4215   11.5802   35.9936 C   0  0  0  0  0  0
   16.2912   10.1971   36.0836 C   0  0  0  0  0  0
   15.0476    9.6181   36.3590 C   0  0  0  0  0  0
   13.9146   10.4323   36.4033 C   0  0  0  0  0  0
   14.0502   11.8022   36.2761 C   0  0  0  0  0  0
   12.6726    9.9154   36.5675 F   0  0  0  0  0  0
   14.9070    8.1361   36.4723 C   0  0  0  0  0  0
   15.3918    7.4263   35.6034 O   0  0  0  0  0  0
   14.1966    7.7007   37.5322 N   0  0  0  0  0  0
   13.6297    6.3612   37.7793 C   0  0  2  0  0  0
   14.6040    5.1528   37.6685 C   0  0  0  0  0  0
   15.7937    5.0283   39.0497 S   0  0  0  0  0  0
   14.8318    4.3121   40.3421 C   0  0  0  0  0  0
   13.5262    4.1585   40.3007 N   0  0  0  0  0  0
   13.2792    3.6098   41.4928 N   0  0  3  0  0  0
   14.3615    3.4159   42.2433 N   0  0  0  0  0  0
   15.3933    3.8870   41.4605 N   0  0  0  0  0  0
   12.3684    6.1655   36.9124 C   0  0  0  0  0  0
   11.2518    6.0395   37.3673 O   0  0  0  0  0  0
   12.6901    6.2203   35.5910 O   0  0  0  0  0  0
   13.9209   17.3316   32.4426 C   0  0  0  0  0  0
   13.6516   17.5799   31.0918 N   0  0  0  0  0  0
   14.3371   17.0516   30.1542 C   0  0  0  0  0  0
   15.4083   16.1991   30.3472 N   0  0  0  0  0  0
   13.9874   17.4139   28.7300 C   0  0  0  0  0  0
   13.3037   17.8115   33.3910 O   0  0  0  0  0  0
   13.2656    6.3973   38.8061 H   0  0  0  0  0  0
   12.3478    3.3654   41.7998 H   0  0  0  0  0  0
   17.9895   12.6626   33.7198 H   0  0  0  0  0  0
   18.9220   13.4878   32.4693 H   0  0  0  0  0  0
   19.0381   14.0200   34.1338 H   0  0  0  0  0  0
   17.4416   14.6071   31.0473 H   0  0  0  0  0  0
   14.8111   16.3946   34.8373 H   0  0  0  0  0  0
   17.5191   13.9847   35.8052 H   0  0  0  0  0  0
   16.7739   15.4269   36.3438 H   0  0  0  0  0  0
   14.5920   15.6762   36.7931 H   0  0  0  0  0  0
   13.4580   14.5740   36.0742 H   0  0  0  0  0  0
   13.0177   13.4645   40.1075 H   0  0  0  0  0  0
   17.4162   11.9719   35.8657 H   0  0  0  0  0  0
   17.1752    9.5884   35.9713 H   0  0  0  0  0  0
   13.1422   12.3807   36.3194 H   0  0  0  0  0  0
   13.8608    8.4108   38.1638 H   0  0  0  0  0  0
   14.0549    4.2105   37.6232 H   0  0  0  0  0  0
   15.1711    5.1879   36.7395 H   0  0  0  0  0  0
   11.9200    6.2919   35.0069 H   0  0  0  0  0  0
   12.9316   17.6693   28.6298 H   0  0  0  0  0  0
   14.5622   18.2802   28.4060 H   0  0  0  0  0  0
   14.1920   16.5947   28.0414 H   0  0  0  0  0  0
   15.9004   15.8111   29.5603 H   0  0  0  0  0  0
  1 42  1  0  0  0
  1 43  1  0  0  0
  1 44  1  0  0  0
  1  2  1  0  0  0
  2  7  1  0  0  0
  2  3  2  0  0  0
  3 45  1  0  0  0
  3  4  1  0  0  0
  4  5  2  0  0  0
  4 37  1  0  0  0
  5 34  1  0  0  0
  5  6  1  0  0  0
  6 46  1  0  0  0
  6  7  2  0  0  0
  7  8  1  0  0  0
  8  9  1  0  0  0
  8 47  1  0  0  0
  8 48  1  0  0  0
  9 10  1  0  0  0
  9 13  1  0  0  0
 10 11  1  0  0  0
 10 49  1  0  0  0
 10 50  1  0  0  0
 11 12  3  0  0  0
 12 51  1  0  0  0
 13 18  1  0  0  0
 13 14  2  0  0  0
 14 15  1  0  0  0
 14 52  1  0  0  0
 15 16  2  0  0  0
 15 53  1  0  0  0
 16 17  1  0  0  0
 16 20  1  0  0  0
 17 18  2  0  0  0
 17 19  1  0  0  0
 18 54  1  0  0  0
 20 21  2  0  0  0
 20 22  1  0  0  0
 22 23  1  0  0  0
 22 55  1  0  0  0
 23 40  1  0  0  0
 23 24  1  0  0  0
 23 31  1  0  0  0
 24 25  1  0  0  0
 24 56  1  0  0  0
 24 57  1  0  0  0
 25 26  1  0  0  0
 26 30  1  0  0  0
 26 27  2  0  0  0
 27 28  1  0  0  0
 28 41  1  0  0  0
 28 29  1  0  0  0
 29 30  2  0  0  0
 31 32  2  0  0  0
 31 33  1  0  0  0
 33 58  1  0  0  0
 34 39  2  0  0  0
 34 35  1  0  0  0
 35 36  2  0  0  0
 36 37  1  0  0  0
 36 38  1  0  0  0
 37 62  1  0  0  0
 38 59  1  0  0  0
 38 60  1  0  0  0
 38 61  1  0  0  0
M  END
> <s_m_entry_id>
41777

> <s_m_entry_name>
ligand_docking-pose.137

> <s_m_Source_Path>
/home/csk/Desktop/cluster/DUD-E-result/tysy

> <s_m_Source_File>
ligand_docking-pose.sdf

> <i_m_Source_File_Index>
137

> <i_lp_mmshare_version>
53161

> <i_f3d_flags>
0

> <r_lp_tautomer_probability>
0.0232102

> <s_lp_Force_Field>
OPLS_2005

> <r_lp_Energy>
27.299067

> <b_lp_Chiralities_Consistent>
1

> <s_lp_Variant>
207226-4

> <s_i_glide_gridfile>
glide-grid_1syn

> <i_i_glide_lignum>
318

> <i_i_glide_rotatable_bonds>
13

> <r_i_docking_score>
-8.10784360867756

> <r_i_glide_ligand_efficiency>
-0.207893425863527

> <r_i_glide_ligand_efficiency_sa>
-0.705010563854861

> <r_i_glide_ligand_efficiency_ln>
-1.73855182452801

> <r_i_glide_gscore>
-8.10784360867756

> <r_i_glide_lipo>
-3.65128402731401

> <r_i_glide_hbond>
0

> <r_i_glide_metal>
0

> <r_i_glide_rewards>
-0.990114458236789

> <r_i_glide_evdw>
-55.4028472900391

> <r_i_glide_ecoul>
-8.46649932861328

> <r_i_glide_erotb>
0.683241249556494

> <r_i_glide_esite>
-0.109569108889319

> <r_i_glide_emodel>
-89.8114785130081

> <r_i_glide_energy>
-63.8693466186523

> <r_i_glide_einternal>
7.4839506149292

> <i_i_glide_confnum>
34

> <i_i_glide_posenum>
229

> <r_i_glide_eff_state_penalty>
0

> <s_user_duplicate_titles>
207226

> <s_m_subgroup_title>
dock_pv

> <s_m_subgroupid>
dock_pv1

> <b_m_subgroup_collapsed>
0

$$$$
61579
                    3D
 Schrodinger Suite 2021-1.
 54 56  0  0  1  0            999 V2000
   15.0924   15.2362   35.9919 C   0  0  0  0  0  0
   16.0565   14.3250   35.3784 N   0  0  0  0  0  0
   16.9673   14.8917   34.3661 C   0  0  0  0  0  0
   16.2785   15.4292   33.1039 C   0  0  0  0  0  0
   16.6569   14.9492   31.8401 C   0  0  0  0  0  0
   16.0616   15.4460   30.6750 C   0  0  0  0  0  0
   15.0808   16.4302   30.7740 C   0  0  0  0  0  0
   14.6832   16.9045   32.0251 C   0  0  0  0  0  0
   15.3055   16.4323   33.1798 C   0  0  0  0  0  0
   13.5693   17.9372   32.1279 C   0  0  0  0  0  0
   13.1231   18.4533   30.9106 N   0  0  0  0  0  0
   13.5830   18.0484   29.7851 C   0  0  0  0  0  0
   14.5054   17.0189   29.6426 N   0  0  0  0  0  0
   13.1214   18.7058   28.4838 C   0  0  0  0  0  0
   12.2643   19.8276   28.6759 O   0  0  0  0  0  0
   13.1198   18.2285   33.2319 O   0  0  0  0  0  0
   16.0344   12.9852   35.7090 C   0  0  0  0  0  0
   17.0262   12.0149   35.5872 C   0  0  0  0  0  0
   16.7187   10.8038   36.0061 N   0  0  0  0  0  0
   15.4875   10.7143   36.4572 C   0  0  0  0  0  0
   14.6213   12.2273   36.3925 S   0  0  0  0  0  0
   14.8460    9.5632   37.0295 C   0  0  0  0  0  0
   15.4969    8.7481   37.6782 O   0  0  0  0  0  0
   13.5266    9.4347   36.7722 N   0  0  0  0  0  0
   12.6674    8.2980   37.1523 C   0  0  2  0  0  0
   12.5768    8.1456   38.6994 C   0  0  0  0  0  0
   12.0287    9.4028   39.4131 C   0  0  0  0  0  0
   12.1920    9.3526   40.9295 C   0  0  0  0  0  0
   12.7476   10.2332   41.5821 O   0  0  0  0  0  0
   11.6131    8.2512   41.4875 O   0  0  0  0  0  0
   13.0855    7.0152   36.3893 C   0  0  0  0  0  0
   13.7922    7.0308   35.4037 O   0  0  0  0  0  0
   12.5159    5.8922   36.9128 O   0  0  0  0  0  0
   11.6731    8.5310   36.7749 H   0  0  0  0  0  0
   14.9688   15.0246   37.0537 H   0  0  0  0  0  0
   15.4237   16.2668   35.9463 H   0  0  0  0  0  0
   14.1277   15.1783   35.4872 H   0  0  0  0  0  0
   17.5849   15.6721   34.8069 H   0  0  0  0  0  0
   17.6765   14.1238   34.0557 H   0  0  0  0  0  0
   17.4249   14.1918   31.7519 H   0  0  0  0  0  0
   16.3767   15.0786   29.7116 H   0  0  0  0  0  0
   15.0152   16.8658   34.1210 H   0  0  0  0  0  0
   13.9834   19.0272   27.8973 H   0  0  0  0  0  0
   12.5973   17.9616   27.9028 H   0  0  0  0  0  0
   11.5267   19.5787   29.2487 H   0  0  0  0  0  0
   14.8063   16.7245   28.7290 H   0  0  0  0  0  0
   18.0209   12.1849   35.2001 H   0  0  0  0  0  0
   13.0853   10.1388   36.2025 H   0  0  0  0  0  0
   13.5513    7.8776   39.1139 H   0  0  0  0  0  0
   11.9218    7.3071   38.9380 H   0  0  0  0  0  0
   10.9771    9.5549   39.1651 H   0  0  0  0  0  0
   12.5535   10.2924   39.0683 H   0  0  0  0  0  0
   11.2257    7.6642   40.8347 H   0  0  0  0  0  0
   12.7881    5.1281   36.3949 H   0  0  0  0  0  0
  1  2  1  0  0  0
  1 35  1  0  0  0
  1 36  1  0  0  0
  1 37  1  0  0  0
  2  3  1  0  0  0
  2 17  1  0  0  0
  3 38  1  0  0  0
  3 39  1  0  0  0
  3  4  1  0  0  0
  4  9  2  0  0  0
  4  5  1  0  0  0
  5 40  1  0  0  0
  5  6  2  0  0  0
  6 41  1  0  0  0
  6  7  1  0  0  0
  7  8  2  0  0  0
  7 13  1  0  0  0
  8 10  1  0  0  0
  8  9  1  0  0  0
  9 42  1  0  0  0
 10 16  2  0  0  0
 10 11  1  0  0  0
 11 12  2  0  0  0
 12 13  1  0  0  0
 12 14  1  0  0  0
 13 46  1  0  0  0
 14 15  1  0  0  0
 14 43  1  0  0  0
 14 44  1  0  0  0
 15 45  1  0  0  0
 17 21  1  0  0  0
 17 18  2  0  0  0
 18 19  1  0  0  0
 18 47  1  0  0  0
 19 20  2  0  0  0
 20 21  1  0  0  0
 20 22  1  0  0  0
 22 23  2  0  0  0
 22 24  1  0  0  0
 24 25  1  0  0  0
 24 48  1  0  0  0
 25 34  1  0  0  0
 25 26  1  0  0  0
 25 31  1  0  0  0
 26 27  1  0  0  0
 26 49  1  0  0  0
 26 50  1  0  0  0
 27 28  1  0  0  0
 27 51  1  0  0  0
 27 52  1  0  0  0
 28 29  2  0  0  0
 28 30  1  0  0  0
 30 53  1  0  0  0
 31 32  2  0  0  0
 31 33  1  0  0  0
 33 54  1  0  0  0
M  END
> <s_m_entry_id>
41778

> <s_m_entry_name>
ligand_docking-pose.138

> <s_m_Source_Path>
/home/csk/Desktop/cluster/DUD-E-result/tysy

> <s_m_Source_File>
ligand_docking-pose.sdf

> <i_m_Source_File_Index>
138

> <i_lp_mmshare_version>
53161

> <i_f3d_flags>
0

> <r_lp_tautomer_probability>
0.116051

> <s_lp_Force_Field>
OPLS_2005

> <r_lp_Energy>
10.045879

> <b_lp_Chiralities_Consistent>
1

> <s_lp_Variant>
61579-2

> <s_i_glide_gridfile>
glide-grid_1syn

> <i_i_glide_lignum>
910

> <i_i_glide_rotatable_bonds>
14

> <r_i_docking_score>
-8.09732843331988

> <r_i_glide_ligand_efficiency>
-0.245373588888481

> <r_i_glide_ligand_efficiency_sa>
-0.787044209116784

> <r_i_glide_ligand_efficiency_ln>
-1.80080391784753

> <r_i_glide_gscore>
-8.09732843331988

> <r_i_glide_lipo>
-3.48440578632619

> <r_i_glide_hbond>
-0.629799398316112

> <r_i_glide_metal>
0

> <r_i_glide_rewards>
-0.82312483922993

> <r_i_glide_evdw>
-51.0976905822754

> <r_i_glide_ecoul>
-10.5172595977783

> <r_i_glide_erotb>
0.984924376136385

> <r_i_glide_esite>
-0.0124493168035169

> <r_i_glide_emodel>
-89.5478405705856

> <r_i_glide_energy>
-61.6149501800537

> <r_i_glide_einternal>
6.37880802154541

> <i_i_glide_confnum>
36

> <i_i_glide_posenum>
264

> <r_i_glide_eff_state_penalty>
0

> <s_user_duplicate_titles>
61579

> <s_m_subgroup_title>
dock_pv

> <s_m_subgroupid>
dock_pv1

> <b_m_subgroup_collapsed>
0

$$$$
207491
                    3D
 Schrodinger Suite 2021-1.
 64 67  0  0  1  0            999 V2000
   17.9107   13.5501   31.4312 C   0  0  0  0  0  0
   16.9913   14.6855   31.8250 C   0  0  0  0  0  0
   16.1318   15.2033   30.8475 C   0  0  0  0  0  0
   15.2487   16.2252   31.1701 C   0  0  0  0  0  0
   15.2314   16.7583   32.4591 C   0  0  0  0  0  0
   16.1337   16.2889   33.4154 C   0  0  0  0  0  0
   16.9911   15.2205   33.1315 C   0  0  0  0  0  0
   17.9381   14.7263   34.2413 C   0  0  0  0  0  0
   17.6698   13.3496   34.7272 N   0  0  0  0  0  0
   18.8233   12.4446   34.4805 C   0  0  0  0  0  0
   18.6242   10.9869   34.3912 C   0  0  0  0  0  0
   18.5918    9.7733   34.2753 C   0  0  0  0  0  0
   16.5485   13.0883   35.5917 C   0  0  0  0  0  0
   15.6528   14.1130   35.9406 C   0  0  0  0  0  0
   14.4898   13.8800   36.6685 C   0  0  0  0  0  0
   14.1618   12.5891   37.1079 C   0  0  0  0  0  0
   15.0832   11.5650   36.8508 C   0  0  0  0  0  0
   16.2457   11.8257   36.1329 C   0  0  0  0  0  0
   14.8834   10.2959   37.2861 F   0  0  0  0  0  0
   12.8685   12.3107   37.8445 C   0  0  0  0  0  0
   12.6832   11.2619   38.4603 O   0  0  0  0  0  0
   11.9407   13.2830   37.7854 N   0  0  0  0  0  0
   10.6371   13.2953   38.4681 C   0  0  2  0  0  0
   10.7442   13.2601   40.0252 C   0  0  0  0  0  0
   11.8836   14.0933   40.6948 C   0  0  0  0  0  0
   12.8017   13.3115   41.6302 C   0  0  0  0  0  0
   13.2030   12.0758   41.3856 N   0  0  0  0  0  0
   14.0325   11.7328   42.4285 N   0  0  0  0  0  0
   14.0521   12.8212   43.1913 N   0  0  3  0  0  0
   13.2906   13.8276   42.7394 N   0  0  0  0  0  0
    9.6270   12.2470   37.9277 C   0  0  0  0  0  0
    8.8188   11.6727   38.6281 O   0  0  0  0  0  0
    9.7499   12.0987   36.5775 O   0  0  0  0  0  0
   14.2140   17.8299   32.8187 C   0  0  0  0  0  0
   13.3948   18.2561   31.7653 N   0  0  0  0  0  0
   13.4815   17.7578   30.5912 C   0  0  0  0  0  0
   14.3593   16.7529   30.2278 N   0  0  0  0  0  0
   12.5537   18.2792   29.5180 C   0  0  0  0  0  0
   14.1572   18.2278   33.9803 O   0  0  0  0  0  0
   10.1911   14.2494   38.1965 H   0  0  0  0  0  0
   14.5691   12.8538   44.0648 H   0  0  0  0  0  0
   17.6866   12.6585   32.0124 H   0  0  0  0  0  0
   17.7962   13.2742   30.3909 H   0  0  0  0  0  0
   18.9516   13.8283   31.5947 H   0  0  0  0  0  0
   16.1358   14.7951   29.8476 H   0  0  0  0  0  0
   16.1479   16.7513   34.3890 H   0  0  0  0  0  0
   18.9519   14.8148   33.8487 H   0  0  0  0  0  0
   17.9281   15.4199   35.0848 H   0  0  0  0  0  0
   19.2962   12.6891   33.5327 H   0  0  0  0  0  0
   19.6134   12.6209   35.1971 H   0  0  0  0  0  0
   18.5931    8.7164   34.1490 H   0  0  0  0  0  0
   15.8301   15.1314   35.6611 H   0  0  0  0  0  0
   13.8575   14.7299   36.8736 H   0  0  0  0  0  0
   16.8764   10.9691   36.0370 H   0  0  0  0  0  0
   12.1573   14.1105   37.2512 H   0  0  0  0  0  0
    9.7873   13.6275   40.3911 H   0  0  0  0  0  0
   10.8041   12.2216   40.3590 H   0  0  0  0  0  0
   12.5133   14.5559   39.9388 H   0  0  0  0  0  0
   11.4304   14.9352   41.2180 H   0  0  0  0  0  0
   10.4851   12.6011   36.2240 H   0  0  0  0  0  0
   11.9527   19.1186   29.8728 H   0  0  0  0  0  0
   13.1121   18.6254   28.6479 H   0  0  0  0  0  0
   11.8642   17.5002   29.1955 H   0  0  0  0  0  0
   14.3677   16.4022   29.2869 H   0  0  0  0  0  0
  1 42  1  0  0  0
  1 43  1  0  0  0
  1 44  1  0  0  0
  1  2  1  0  0  0
  2  7  1  0  0  0
  2  3  2  0  0  0
  3 45  1  0  0  0
  3  4  1  0  0  0
  4  5  2  0  0  0
  4 37  1  0  0  0
  5 34  1  0  0  0
  5  6  1  0  0  0
  6 46  1  0  0  0
  6  7  2  0  0  0
  7  8  1  0  0  0
  8  9  1  0  0  0
  8 47  1  0  0  0
  8 48  1  0  0  0
  9 10  1  0  0  0
  9 13  1  0  0  0
 10 11  1  0  0  0
 10 49  1  0  0  0
 10 50  1  0  0  0
 11 12  3  0  0  0
 12 51  1  0  0  0
 13 18  1  0  0  0
 13 14  2  0  0  0
 14 15  1  0  0  0
 14 52  1  0  0  0
 15 16  2  0  0  0
 15 53  1  0  0  0
 16 17  1  0  0  0
 16 20  1  0  0  0
 17 18  2  0  0  0
 17 19  1  0  0  0
 18 54  1  0  0  0
 20 21  2  0  0  0
 20 22  1  0  0  0
 22 23  1  0  0  0
 22 55  1  0  0  0
 23 40  1  0  0  0
 23 24  1  0  0  0
 23 31  1  0  0  0
 24 25  1  0  0  0
 24 56  1  0  0  0
 24 57  1  0  0  0
 25 58  1  0  0  0
 25 59  1  0  0  0
 25 26  1  0  0  0
 26 27  1  0  0  0
 26 30  2  0  0  0
 27 28  2  0  0  0
 28 29  1  0  0  0
 29 41  1  0  0  0
 29 30  1  0  0  0
 31 32  2  0  0  0
 31 33  1  0  0  0
 33 60  1  0  0  0
 34 39  2  0  0  0
 34 35  1  0  0  0
 35 36  2  0  0  0
 36 37  1  0  0  0
 36 38  1  0  0  0
 37 64  1  0  0  0
 38 61  1  0  0  0
 38 62  1  0  0  0
 38 63  1  0  0  0
M  END
> <s_m_entry_id>
41783

> <s_m_entry_name>
ligand_docking-pose.143

> <s_m_Source_Path>
/home/csk/Desktop/cluster/DUD-E-result/tysy

> <s_m_Source_File>
ligand_docking-pose.sdf

> <i_m_Source_File_Index>
143

> <i_lp_mmshare_version>
53161

> <i_f3d_flags>
0

> <r_lp_tautomer_probability>
0.0232102

> <s_lp_Force_Field>
OPLS_2005

> <r_lp_Energy>
14.539213

> <b_lp_Chiralities_Consistent>
1

> <s_lp_Variant>
207491-4

> <s_i_glide_gridfile>
glide-grid_1syn

> <i_i_glide_lignum>
268

> <i_i_glide_rotatable_bonds>
13

> <r_i_docking_score>
-8.06810193158044

> <r_i_glide_ligand_efficiency>
-0.206874408502063

> <r_i_glide_ligand_efficiency_sa>
-0.701554860522252

> <r_i_glide_ligand_efficiency_ln>
-1.7300300808238

> <r_i_glide_gscore>
-8.06810193158044

> <r_i_glide_lipo>
-3.54676483009151

> <r_i_glide_hbond>
-0.292693194223589

> <r_i_glide_metal>
0

> <r_i_glide_rewards>
-0.804437121263677

> <r_i_glide_evdw>
-66.9563522338867

> <r_i_glide_ecoul>
-5.37054920196533

> <r_i_glide_erotb>
0.800090503894001

> <r_i_glide_esite>
-0.0708972979065324

> <r_i_glide_emodel>
-103.771258445292

> <r_i_glide_energy>
-72.3269014358521

> <r_i_glide_einternal>
5.57875299453735

> <i_i_glide_confnum>
47

> <i_i_glide_posenum>
233

> <r_i_glide_eff_state_penalty>
0

> <s_user_duplicate_titles>
207491

> <s_m_subgroup_title>
dock_pv

> <s_m_subgroupid>
dock_pv1

> <b_m_subgroup_collapsed>
0

$$$$
207403
                    3D
 Schrodinger Suite 2021-1.
 64 67  0  0  1  0            999 V2000
   17.4747   13.7340   31.0717 C   0  0  0  0  0  0
   16.6593   14.8951   31.5972 C   0  0  0  0  0  0
   15.6870   15.4317   30.7448 C   0  0  0  0  0  0
   14.9016   16.4933   31.1670 C   0  0  0  0  0  0
   15.0695   17.0244   32.4454 C   0  0  0  0  0  0
   16.0506   16.5053   33.2936 C   0  0  0  0  0  0
   16.8543   15.4375   32.8857 C   0  0  0  0  0  0
   17.9610   14.9713   33.8450 C   0  0  0  0  0  0
   17.7586   13.6296   34.4231 N   0  0  0  0  0  0
   18.6612   12.5838   33.9084 C   0  0  0  0  0  0
   19.0663   11.5454   34.8675 C   0  0  0  0  0  0
   19.4108   10.6280   35.5910 C   0  0  0  0  0  0
   16.5927   13.3396   35.1918 C   0  0  0  0  0  0
   15.8781   14.3524   35.8453 C   0  0  0  0  0  0
   14.6901   14.0845   36.5234 C   0  0  0  0  0  0
   14.1801   12.7782   36.5910 C   0  0  0  0  0  0
   14.9240   11.7482   36.0002 C   0  0  0  0  0  0
   16.0975   12.0330   35.3173 C   0  0  0  0  0  0
   14.5271   10.4540   36.0612 F   0  0  0  0  0  0
   12.8696   12.4699   37.2753 C   0  0  0  0  0  0
   12.2022   11.4846   36.9599 O   0  0  0  0  0  0
   12.5080   13.3030   38.2669 N   0  0  0  0  0  0
   11.3235   13.1750   39.1325 C   0  0  2  0  0  0
   11.2762   11.8435   39.9448 C   0  0  0  0  0  0
   12.9365   11.3062   40.6016 S   0  0  2  0  0  0
   12.7074    9.9666   41.3038 O   0  0  0  0  0  0
   13.1300   12.4988   41.9841 C   0  0  0  0  0  0
   13.7928   12.2586   43.1768 C   0  0  0  0  0  0
   13.6923   13.4280   43.8758 N   0  0  0  0  0  0
   12.9971   14.3317   43.1914 N   0  0  0  0  0  0
   12.6804   13.7425   41.9849 N   0  0  0  0  0  0
    9.9857   13.4285   38.3951 C   0  0  0  0  0  0
    9.8421   13.4647   37.1922 O   0  0  0  0  0  0
    9.0065   13.6968   39.3051 O   0  0  0  0  0  0
   14.1952   18.1782   32.8985 C   0  0  0  0  0  0
   13.2656   18.6375   31.9581 N   0  0  0  0  0  0
   13.1856   18.1386   30.7844 C   0  0  0  0  0  0
   13.9445   17.0758   30.3307 N   0  0  0  0  0  0
   12.1921   18.7293   29.8124 C   0  0  0  0  0  0
   14.3678   18.6278   34.0263 O   0  0  0  0  0  0
   14.0829   13.5953   44.7947 H   0  0  0  0  0  0
   17.0940   12.7977   31.4724 H   0  0  0  0  0  0
   17.3926   13.6771   29.9911 H   0  0  0  0  0  0
   18.5339   13.8312   31.3122 H   0  0  0  0  0  0
   15.5411   15.0213   29.7571 H   0  0  0  0  0  0
   16.1923   16.9386   34.2723 H   0  0  0  0  0  0
   18.8980   15.0147   33.2873 H   0  0  0  0  0  0
   18.1048   15.6884   34.6539 H   0  0  0  0  0  0
   18.1936   12.0447   33.0893 H   0  0  0  0  0  0
   19.5824   13.0238   33.5224 H   0  0  0  0  0  0
   19.7174    9.8281   36.2220 H   0  0  0  0  0  0
   16.2291   15.3710   35.8370 H   0  0  0  0  0  0
   14.1800   14.9201   36.9779 H   0  0  0  0  0  0
   16.5650   11.1991   34.8253 H   0  0  0  0  0  0
   13.0968   14.1001   38.4499 H   0  0  0  0  0  0
   11.4115   14.0049   39.8292 H   0  0  0  0  0  0
   10.5825   11.9163   40.7795 H   0  0  0  0  0  0
   10.9179   11.0275   39.3144 H   0  0  0  0  0  0
   14.3135   11.3976   43.5745 H   0  0  0  0  0  0
    8.2171   13.9852   38.8373 H   0  0  0  0  0  0
   11.7932   19.6788   30.1721 H   0  0  0  0  0  0
   12.6532   18.9223   28.8446 H   0  0  0  0  0  0
   11.3481   18.0571   29.6594 H   0  0  0  0  0  0
   13.8308   16.7360   29.3916 H   0  0  0  0  0  0
  1 42  1  0  0  0
  1 43  1  0  0  0
  1 44  1  0  0  0
  1  2  1  0  0  0
  2  7  1  0  0  0
  2  3  2  0  0  0
  3 45  1  0  0  0
  3  4  1  0  0  0
  4  5  2  0  0  0
  4 38  1  0  0  0
  5 35  1  0  0  0
  5  6  1  0  0  0
  6 46  1  0  0  0
  6  7  2  0  0  0
  7  8  1  0  0  0
  8  9  1  0  0  0
  8 47  1  0  0  0
  8 48  1  0  0  0
  9 10  1  0  0  0
  9 13  1  0  0  0
 10 11  1  0  0  0
 10 49  1  0  0  0
 10 50  1  0  0  0
 11 12  3  0  0  0
 12 51  1  0  0  0
 13 18  1  0  0  0
 13 14  2  0  0  0
 14 15  1  0  0  0
 14 52  1  0  0  0
 15 16  2  0  0  0
 15 53  1  0  0  0
 16 17  1  0  0  0
 16 20  1  0  0  0
 17 18  2  0  0  0
 17 19  1  0  0  0
 18 54  1  0  0  0
 20 21  2  0  0  0
 20 22  1  0  0  0
 22 23  1  0  0  0
 22 55  1  0  0  0
 23 24  1  0  0  0
 23 32  1  0  0  0
 23 56  1  0  0  0
 24 25  1  0  0  0
 24 57  1  0  0  0
 24 58  1  0  0  0
 25 26  2  0  0  0
 25 27  1  0  0  0
 27 31  1  0  0  0
 27 28  2  0  0  0
 28 29  1  0  0  0
 28 59  1  0  0  0
 29 41  1  0  0  0
 29 30  1  0  0  0
 30 31  2  0  0  0
 32 33  2  0  0  0
 32 34  1  0  0  0
 34 60  1  0  0  0
 35 40  2  0  0  0
 35 36  1  0  0  0
 36 37  2  0  0  0
 37 38  1  0  0  0
 37 39  1  0  0  0
 38 64  1  0  0  0
 39 61  1  0  0  0
 39 62  1  0  0  0
 39 63  1  0  0  0
M  END
> <s_m_entry_id>
41784

> <s_m_entry_name>
ligand_docking-pose.144

> <s_m_Source_Path>
/home/csk/Desktop/cluster/DUD-E-result/tysy

> <s_m_Source_File>
ligand_docking-pose.sdf

> <i_m_Source_File_Index>
144

> <i_lp_mmshare_version>
53161

> <i_f3d_flags>
0

> <r_lp_tautomer_probability>
0.0201727012987013

> <s_lp_Force_Field>
OPLS_2005

> <r_lp_Energy>
21.655652

> <b_lp_Chiralities_Consistent>
1

> <s_lp_Variant>
207403-17

> <s_i_glide_gridfile>
glide-grid_1syn

> <i_i_glide_lignum>
251

> <i_i_glide_rotatable_bonds>
13

> <r_i_docking_score>
-8.0677274709355

> <r_i_glide_ligand_efficiency>
-0.201693186773388

> <r_i_glide_ligand_efficiency_sa>
-0.689780995133954

> <r_i_glide_ligand_efficiency_ln>
-1.72060884692973

> <r_i_glide_gscore>
-8.0677274709355

> <r_i_glide_lipo>
-3.61010215081102

> <r_i_glide_hbond>
-0.044910035559073

> <r_i_glide_metal>
0

> <r_i_glide_rewards>
-0.807296140516178

> <r_i_glide_evdw>
-65.3015365600586

> <r_i_glide_ecoul>
-6.06933116912842

> <r_i_glide_erotb>
0.630566135327509

> <r_i_glide_esite>
-0.0605087760045523

> <r_i_glide_emodel>
-103.220863006785

> <r_i_glide_energy>
-71.370867729187

> <r_i_glide_einternal>
8.42038440704346

> <i_i_glide_confnum>
27

> <i_i_glide_posenum>
113

> <r_i_glide_eff_state_penalty>
0

> <s_user_duplicate_titles>
207403

> <s_m_subgroup_title>
dock_pv

> <s_m_subgroupid>
dock_pv1

> <b_m_subgroup_collapsed>
0

$$$$
293376
                    3D
 Schrodinger Suite 2021-1.
 59 61  0  0  1  0            999 V2000
   12.0382   18.7778   29.8183 C   0  0  0  0  0  0
   13.1079   17.9455   30.4845 C   0  0  0  0  0  0
   13.2334   18.0324   31.8648 N   0  0  0  0  0  0
   14.1895   17.2360   32.5319 C   0  0  0  0  0  0
   14.3227   17.2902   33.9114 C   0  0  0  0  0  0
   15.2994   16.5183   34.5351 C   0  0  0  0  0  0
   16.1710   15.6968   33.8049 C   0  0  0  0  0  0
   16.0142   15.6255   32.4160 C   0  0  0  0  0  0
   15.0174   16.3840   31.7657 C   0  0  0  0  0  0
   14.8166   16.3454   30.2726 C   0  0  0  0  0  0
   13.8221   17.1701   29.7585 N   0  0  0  0  0  0
   15.6608   15.4241   29.1912 S   0  0  0  0  0  0
   17.3610   14.9925   34.4870 C   0  0  0  0  0  0
   17.2139   13.5400   34.7010 N   0  0  0  0  0  0
   18.2069   12.6842   34.0070 C   0  0  0  0  0  0
   18.7822   11.5720   34.7913 C   0  0  0  0  0  0
   19.2550   10.6285   35.4044 C   0  0  0  0  0  0
   16.2113   13.0426   35.5911 C   0  0  0  0  0  0
   15.5946   13.8966   36.5094 C   0  0  0  0  0  0
   14.5921   13.4526   37.3571 C   0  0  0  0  0  0
   14.1929   12.1111   37.3382 C   0  0  0  0  0  0
   14.8140   11.2325   36.4508 C   0  0  0  0  0  0
   15.8027   11.6984   35.5907 C   0  0  0  0  0  0
   13.1539   11.6108   38.3030 C   0  0  0  0  0  0
   13.1627   10.4500   38.7162 O   0  0  0  0  0  0
   12.2668   12.5351   38.6922 N   0  0  0  0  0  0
   11.2628   12.3789   39.7360 C   0  0  1  0  0  0
   11.9399   12.3824   41.1454 C   0  0  0  0  0  0
   13.1821   13.2857   41.3599 C   0  0  0  0  0  0
   13.6366   13.3045   42.8206 C   0  0  0  0  0  0
   13.3922   14.2276   43.5891 O   0  0  0  0  0  0
   14.3090   12.1777   43.1907 O   0  0  0  0  0  0
   10.1452   13.4285   39.5453 C   0  0  0  0  0  0
    9.8048   14.2281   40.3909 O   0  0  0  0  0  0
    9.5881   13.3317   38.3052 O   0  0  0  0  0  0
   12.2989   19.0231   28.7870 H   0  0  0  0  0  0
   11.0965   18.2281   29.7922 H   0  0  0  0  0  0
   11.8683   19.7189   30.3412 H   0  0  0  0  0  0
   13.6916   17.9412   34.5003 H   0  0  0  0  0  0
   15.3869   16.6225   35.6012 H   0  0  0  0  0  0
   16.6909   14.9936   31.8568 H   0  0  0  0  0  0
   12.6444   18.6641   32.3849 H   0  0  0  0  0  0
   18.2381   15.2028   33.8741 H   0  0  0  0  0  0
   17.6030   15.4282   35.4531 H   0  0  0  0  0  0
   17.7921   12.2621   33.0948 H   0  0  0  0  0  0
   19.0692   13.2699   33.6869 H   0  0  0  0  0  0
   19.6981    9.8281   35.9458 H   0  0  0  0  0  0
   15.9140   14.9145   36.6308 H   0  0  0  0  0  0
   14.1785   14.1627   38.0585 H   0  0  0  0  0  0
   14.5334   10.1892   36.4133 H   0  0  0  0  0  0
   16.2260   10.9939   34.8933 H   0  0  0  0  0  0
   12.2554   13.4181   38.2048 H   0  0  0  0  0  0
   10.7713   11.4136   39.5969 H   0  0  0  0  0  0
   11.1975   12.6697   41.8794 H   0  0  0  0  0  0
   12.2145   11.3547   41.3905 H   0  0  0  0  0  0
   14.0196   12.9590   40.7438 H   0  0  0  0  0  0
   12.9495   14.3070   41.0594 H   0  0  0  0  0  0
   14.5923   12.1908   44.1185 H   0  0  0  0  0  0
    8.9078   14.0011   38.1891 H   0  0  0  0  0  0
  1 36  1  0  0  0
  1 37  1  0  0  0
  1 38  1  0  0  0
  1  2  1  0  0  0
  2  3  1  0  0  0
  2 11  2  0  0  0
  3  4  1  0  0  0
  3 42  1  0  0  0
  4  9  2  0  0  0
  4  5  1  0  0  0
  5  6  2  0  0  0
  5 39  1  0  0  0
  6  7  1  0  0  0
  6 40  1  0  0  0
  7  8  2  0  0  0
  7 13  1  0  0  0
  8  9  1  0  0  0
  8 41  1  0  0  0
  9 10  1  0  0  0
 10 12  2  0  0  0
 10 11  1  0  0  0
 13 14  1  0  0  0
 13 43  1  0  0  0
 13 44  1  0  0  0
 14 15  1  0  0  0
 14 18  1  0  0  0
 15 16  1  0  0  0
 15 45  1  0  0  0
 15 46  1  0  0  0
 16 17  3  0  0  0
 17 47  1  0  0  0
 18 23  1  0  0  0
 18 19  2  0  0  0
 19 20  1  0  0  0
 19 48  1  0  0  0
 20 21  2  0  0  0
 20 49  1  0  0  0
 21 22  1  0  0  0
 21 24  1  0  0  0
 22 23  2  0  0  0
 22 50  1  0  0  0
 23 51  1  0  0  0
 24 25  2  0  0  0
 24 26  1  0  0  0
 26 27  1  0  0  0
 26 52  1  0  0  0
 27 28  1  0  0  0
 27 33  1  0  0  0
 27 53  1  0  0  0
 28 29  1  0  0  0
 28 54  1  0  0  0
 28 55  1  0  0  0
 29 30  1  0  0  0
 29 56  1  0  0  0
 29 57  1  0  0  0
 30 31  2  0  0  0
 30 32  1  0  0  0
 32 58  1  0  0  0
 33 34  2  0  0  0
 33 35  1  0  0  0
 35 59  1  0  0  0
M  END
> <s_m_entry_id>
41788

> <s_m_entry_name>
ligand_docking-pose.148

> <s_m_Source_Path>
/home/csk/Desktop/cluster/DUD-E-result/tysy

> <s_m_Source_File>
ligand_docking-pose.sdf

> <i_m_Source_File_Index>
148

> <i_lp_mmshare_version>
53161

> <i_f3d_flags>
0

> <r_lp_tautomer_probability>
0.116051

> <s_lp_Force_Field>
OPLS_2005

> <r_lp_Energy>
18.617133

> <b_lp_Chiralities_Consistent>
1

> <s_lp_Variant>
293376-4

> <s_i_glide_gridfile>
glide-grid_1syn

> <i_i_glide_lignum>
685

> <i_i_glide_rotatable_bonds>
14

> <r_i_docking_score>
-8.02938236309492

> <r_i_glide_ligand_efficiency>
-0.229410924659855

> <r_i_glide_ligand_efficiency_sa>
-0.750418345954731

> <r_i_glide_ligand_efficiency_ln>
-1.76262763123958

> <r_i_glide_gscore>
-8.02938236309492

> <r_i_glide_lipo>
-3.29296961238848

> <r_i_glide_hbond>
-0.0927295572418956

> <r_i_glide_metal>
0

> <r_i_glide_rewards>
-1.21993010014567

> <r_i_glide_evdw>
-58.2886199951172

> <r_i_glide_ecoul>
-9.95981121063232

> <r_i_glide_erotb>
1.00733856288199

> <r_i_glide_esite>
-0.0226889748501611

> <r_i_glide_emodel>
-96.1804920039846

> <r_i_glide_energy>
-68.2484312057495

> <r_i_glide_einternal>
7.20512056350708

> <i_i_glide_confnum>
69

> <i_i_glide_posenum>
306

> <r_i_glide_eff_state_penalty>
0

> <s_user_duplicate_titles>
293376

> <s_m_subgroup_title>
dock_pv

> <s_m_subgroupid>
dock_pv1

> <b_m_subgroup_collapsed>
0

$$$$
61078
                    3D
 Schrodinger Suite 2021-1.
 56 58  0  0  1  0            999 V2000
   12.4061   18.4583   29.3327 C   0  0  0  0  0  0
   13.4391   17.6603   30.0931 C   0  0  0  0  0  0
   13.3884   17.7456   31.4681 N   0  0  0  0  0  0
   14.3349   17.0796   32.2488 C   0  0  0  0  0  0
   14.3189   17.1792   33.6333 C   0  0  0  0  0  0
   15.3332   16.5734   34.3736 C   0  0  0  0  0  0
   16.3790   15.8893   33.7403 C   0  0  0  0  0  0
   16.3520   15.7406   32.3451 C   0  0  0  0  0  0
   15.3245   16.3341   31.5977 C   0  0  0  0  0  0
   15.2965   16.2271   30.0769 C   0  0  0  0  0  0
   14.2869   16.9616   29.4386 N   0  0  0  0  0  0
   16.1443   15.5495   29.5020 O   0  0  0  0  0  0
   17.5676   15.4289   34.5947 C   0  0  0  0  0  0
   18.1409   14.1354   34.2126 N   0  0  0  0  0  0
   19.2693   14.2406   33.2812 C   0  0  0  0  0  0
   20.5872   14.2286   33.9434 C   0  0  0  0  0  0
   21.7054   14.1601   34.4286 C   0  0  0  0  0  0
   17.7569   12.9419   34.7991 C   0  0  0  0  0  0
   18.4377   11.7271   34.8013 C   0  0  0  0  0  0
   17.7510   10.6993   35.4557 C   0  0  0  0  0  0
   16.4891   11.0829   35.9042 C   0  0  0  0  0  0
   16.2396   12.7901   35.6439 S   0  0  0  0  0  0
   15.4963   10.2398   36.5247 C   0  0  0  0  0  0
   15.7922    9.1652   37.0450 O   0  0  0  0  0  0
   14.2326   10.6972   36.4561 N   0  0  0  0  0  0
   13.0195    9.9430   36.8138 C   0  0  2  0  0  0
   13.0290    9.4093   38.2866 C   0  0  0  0  0  0
   13.6257   10.3103   39.4002 C   0  0  0  0  0  0
   12.8309   11.5800   39.6944 C   0  0  0  0  0  0
   12.1623   11.7450   40.7135 O   0  0  0  0  0  0
   12.9892   12.5230   38.7249 O   0  0  0  0  0  0
   12.7577    8.8158   35.7780 C   0  0  0  0  0  0
   13.5060    8.4993   34.8755 O   0  0  0  0  0  0
   11.5445    8.2488   35.9921 O   0  0  0  0  0  0
   12.1937   10.6492   36.7124 H   0  0  0  0  0  0
   12.5921   18.4396   28.2594 H   0  0  0  0  0  0
   11.4037   18.0685   29.5049 H   0  0  0  0  0  0
   12.4157   19.5019   29.6428 H   0  0  0  0  0  0
   13.5494   17.7493   34.1319 H   0  0  0  0  0  0
   15.3297   16.6790   35.4481 H   0  0  0  0  0  0
   17.1452   15.2044   31.8426 H   0  0  0  0  0  0
   12.7014   18.3331   31.9104 H   0  0  0  0  0  0
   18.3401   16.1985   34.5518 H   0  0  0  0  0  0
   17.2728   15.3927   35.6442 H   0  0  0  0  0  0
   19.2409   13.4280   32.5571 H   0  0  0  0  0  0
   19.2200   15.1614   32.7013 H   0  0  0  0  0  0
   22.6918   13.9871   34.7914 H   0  0  0  0  0  0
   19.4030   11.5854   34.3401 H   0  0  0  0  0  0
   18.1447    9.6993   35.5389 H   0  0  0  0  0  0
   14.0795   11.5352   35.9147 H   0  0  0  0  0  0
   12.0069    9.1490   38.5702 H   0  0  0  0  0  0
   13.5737    8.4648   38.3244 H   0  0  0  0  0  0
   13.6564    9.7316   40.3241 H   0  0  0  0  0  0
   14.6620   10.5725   39.1920 H   0  0  0  0  0  0
   13.5622   12.2155   38.0195 H   0  0  0  0  0  0
   11.3885    7.6221   35.2715 H   0  0  0  0  0  0
  1 36  1  0  0  0
  1 37  1  0  0  0
  1 38  1  0  0  0
  1  2  1  0  0  0
  2  3  1  0  0  0
  2 11  2  0  0  0
  3  4  1  0  0  0
  3 42  1  0  0  0
  4  9  2  0  0  0
  4  5  1  0  0  0
  5  6  2  0  0  0
  5 39  1  0  0  0
  6  7  1  0  0  0
  6 40  1  0  0  0
  7  8  2  0  0  0
  7 13  1  0  0  0
  8  9  1  0  0  0
  8 41  1  0  0  0
  9 10  1  0  0  0
 10 12  2  0  0  0
 10 11  1  0  0  0
 13 14  1  0  0  0
 13 43  1  0  0  0
 13 44  1  0  0  0
 14 15  1  0  0  0
 14 18  1  0  0  0
 15 16  1  0  0  0
 15 45  1  0  0  0
 15 46  1  0  0  0
 16 17  3  0  0  0
 17 47  1  0  0  0
 18 22  1  0  0  0
 18 19  2  0  0  0
 19 20  1  0  0  0
 19 48  1  0  0  0
 20 21  2  0  0  0
 20 49  1  0  0  0
 21 22  1  0  0  0
 21 23  1  0  0  0
 23 24  2  0  0  0
 23 25  1  0  0  0
 25 26  1  0  0  0
 25 50  1  0  0  0
 26 35  1  0  0  0
 26 27  1  0  0  0
 26 32  1  0  0  0
 27 28  1  0  0  0
 27 51  1  0  0  0
 27 52  1  0  0  0
 28 29  1  0  0  0
 28 53  1  0  0  0
 28 54  1  0  0  0
 29 30  2  0  0  0
 29 31  1  0  0  0
 31 55  1  0  0  0
 32 33  2  0  0  0
 32 34  1  0  0  0
 34 56  1  0  0  0
M  END
> <s_m_entry_id>
41789

> <s_m_entry_name>
ligand_docking-pose.149

> <s_m_Source_Path>
/home/csk/Desktop/cluster/DUD-E-result/tysy

> <s_m_Source_File>
ligand_docking-pose.sdf

> <i_m_Source_File_Index>
149

> <i_lp_mmshare_version>
53161

> <i_f3d_flags>
0

> <r_lp_tautomer_probability>
0.116051

> <s_lp_Force_Field>
OPLS_2005

> <r_lp_Energy>
14.409795

> <b_lp_Chiralities_Consistent>
1

> <s_lp_Variant>
61078-2

> <s_i_glide_gridfile>
glide-grid_1syn

> <i_i_glide_lignum>
651

> <i_i_glide_rotatable_bonds>
14

> <r_i_docking_score>
-8.02106560032232

> <r_i_glide_ligand_efficiency>
-0.235913694127127

> <r_i_glide_ligand_efficiency_sa>
-0.764268786678845

> <r_i_glide_ligand_efficiency_ln>
-1.7720783743806

> <r_i_glide_gscore>
-8.02106560032232

> <r_i_glide_lipo>
-3.21204932802449

> <r_i_glide_hbond>
-0.339487892299106

> <r_i_glide_metal>
0

> <r_i_glide_rewards>
-0.794489019418949

> <r_i_glide_evdw>
-55.0190353393555

> <r_i_glide_ecoul>
-13.0644559860229

> <r_i_glide_erotb>
1.04601439079423

> <r_i_glide_esite>
-0.0104335865027953

> <r_i_glide_emodel>
-95.3876961790087

> <r_i_glide_energy>
-68.0834913253784

> <r_i_glide_einternal>
8.75754833221436

> <i_i_glide_confnum>
74

> <i_i_glide_posenum>
288

> <r_i_glide_eff_state_penalty>
0

> <s_user_duplicate_titles>
61078

> <s_m_subgroup_title>
dock_pv

> <s_m_subgroupid>
dock_pv1

> <b_m_subgroup_collapsed>
0

$$$$
269123
                    3D
 Schrodinger Suite 2021-1.
 60 63  0  0  1  0            999 V2000
   16.9921   13.4284   30.7959 C   0  0  0  0  0  0
   17.6032   13.4281   31.8552 C   0  0  0  0  0  0
   18.3211   13.5501   33.1413 C   0  0  0  0  0  0
   17.4509   13.9269   34.2753 N   0  0  0  0  0  0
   17.2639   15.3569   34.5761 C   0  0  0  0  0  0
   16.0767   16.0309   33.8614 C   0  0  0  0  0  0
   15.0033   16.5691   34.5927 C   0  0  0  0  0  0
   13.9800   17.2687   33.9496 C   0  0  0  0  0  0
   13.9868   17.3753   32.5640 C   0  0  0  0  0  0
   15.0100   16.7966   31.8132 C   0  0  0  0  0  0
   16.0894   16.2027   32.4733 C   0  0  0  0  0  0
   14.9393   16.8249   30.2911 C   0  0  0  0  0  0
   13.8717   17.5546   29.7550 N   0  0  0  0  0  0
   13.0009   18.1429   30.4926 C   0  0  0  0  0  0
   12.9940   18.0746   31.8764 N   0  0  0  0  0  0
   11.8382   18.9149   29.8600 C   0  0  0  0  0  0
   12.1920   19.5838   28.6552 O   0  0  0  0  0  0
   15.7904   16.2299   29.6280 O   0  0  0  0  0  0
   16.8711   12.9549   35.1458 C   0  0  0  0  0  0
   15.7934   13.3018   35.9771 C   0  0  0  0  0  0
   15.1616   12.3627   36.7758 C   0  0  0  0  0  0
   15.5948   11.0329   36.7846 C   0  0  0  0  0  0
   16.6890   10.6743   35.9926 C   0  0  0  0  0  0
   17.3205   11.6250   35.1910 C   0  0  0  0  0  0
   14.9166   10.0276   37.6794 C   0  0  0  0  0  0
   15.5494    9.1433   38.2554 O   0  0  0  0  0  0
   13.5990   10.2327   37.8361 N   0  0  0  0  0  0
   12.7745    9.8227   38.9640 C   0  0  0  0  0  0
   12.2548   11.0762   39.6530 C   0  0  0  0  0  0
   11.0351   11.6377   39.2659 C   0  0  0  0  0  0
   10.6094   12.8399   39.8270 C   0  0  0  0  0  0
   11.3898   13.4751   40.7905 C   0  0  0  0  0  0
   12.5995   12.9095   41.2231 C   0  0  0  0  0  0
   13.0143   11.6981   40.6500 C   0  0  0  0  0  0
   13.4317   13.5925   42.2422 N   0  3  0  0  0  0
   12.9918   14.6130   42.7662 O   0  5  0  0  0  0
   14.5206   13.1111   42.5346 O   0  0  0  0  0  0
   16.4364   13.4484   29.8866 H   0  0  0  0  0  0
   19.0667   14.3338   32.9886 H   0  0  0  0  0  0
   18.9233   12.6592   33.3113 H   0  0  0  0  0  0
   18.1702   15.9063   34.3162 H   0  0  0  0  0  0
   17.1725   15.4281   35.6596 H   0  0  0  0  0  0
   14.9908   16.4932   35.6696 H   0  0  0  0  0  0
   13.1904   17.7253   34.5258 H   0  0  0  0  0  0
   16.9479   15.8863   31.9048 H   0  0  0  0  0  0
   11.0361   18.2144   29.6287 H   0  0  0  0  0  0
   11.4192   19.6410   30.5601 H   0  0  0  0  0  0
   11.3552   19.8284   28.2252 H   0  0  0  0  0  0
   12.2891   18.5614   32.4041 H   0  0  0  0  0  0
   15.3893   14.2985   35.9943 H   0  0  0  0  0  0
   14.3378   12.6934   37.3940 H   0  0  0  0  0  0
   17.0545    9.6599   35.9886 H   0  0  0  0  0  0
   18.1553   11.2921   34.5965 H   0  0  0  0  0  0
   13.1422   10.8084   37.1443 H   0  0  0  0  0  0
   11.9503    9.2014   38.6100 H   0  0  0  0  0  0
   13.3279    9.2094   39.6805 H   0  0  0  0  0  0
   10.4367   11.1690   38.4977 H   0  0  0  0  0  0
    9.6822   13.2881   39.4992 H   0  0  0  0  0  0
   11.0474   14.4183   41.1937 H   0  0  0  0  0  0
   13.9539   11.2507   40.9447 H   0  0  0  0  0  0
  1  2  3  0  0  0
  1 38  1  0  0  0
  2  3  1  0  0  0
  3  4  1  0  0  0
  3 39  1  0  0  0
  3 40  1  0  0  0
  4  5  1  0  0  0
  4 19  1  0  0  0
  5 41  1  0  0  0
  5 42  1  0  0  0
  5  6  1  0  0  0
  6 11  2  0  0  0
  6  7  1  0  0  0
  7 43  1  0  0  0
  7  8  2  0  0  0
  8 44  1  0  0  0
  8  9  1  0  0  0
  9 10  2  0  0  0
  9 15  1  0  0  0
 10 12  1  0  0  0
 10 11  1  0  0  0
 11 45  1  0  0  0
 12 18  2  0  0  0
 12 13  1  0  0  0
 13 14  2  0  0  0
 14 15  1  0  0  0
 14 16  1  0  0  0
 15 49  1  0  0  0
 16 17  1  0  0  0
 16 46  1  0  0  0
 16 47  1  0  0  0
 17 48  1  0  0  0
 19 24  1  0  0  0
 19 20  2  0  0  0
 20 21  1  0  0  0
 20 50  1  0  0  0
 21 22  2  0  0  0
 21 51  1  0  0  0
 22 23  1  0  0  0
 22 25  1  0  0  0
 23 24  2  0  0  0
 23 52  1  0  0  0
 24 53  1  0  0  0
 25 26  2  0  0  0
 25 27  1  0  0  0
 27 28  1  0  0  0
 27 54  1  0  0  0
 28 29  1  0  0  0
 28 55  1  0  0  0
 28 56  1  0  0  0
 29 34  1  0  0  0
 29 30  2  0  0  0
 30 31  1  0  0  0
 30 57  1  0  0  0
 31 32  2  0  0  0
 31 58  1  0  0  0
 32 33  1  0  0  0
 32 59  1  0  0  0
 33 34  2  0  0  0
 33 35  1  0  0  0
 34 60  1  0  0  0
 35 36  1  0  0  0
 35 37  2  0  0  0
M  CHG  2  35   1  36  -1
M  END
> <s_m_entry_id>
41790

> <s_m_entry_name>
ligand_docking-pose.150

> <s_m_Source_Path>
/home/csk/Desktop/cluster/DUD-E-result/tysy

> <s_m_Source_File>
ligand_docking-pose.sdf

> <i_m_Source_File_Index>
150

> <i_lp_mmshare_version>
53161

> <i_f3d_flags>
0

> <r_lp_tautomer_probability>
0.116051

> <s_lp_Force_Field>
OPLS_2005

> <r_lp_Energy>
26.007107

> <b_lp_Chiralities_Consistent>
1

> <s_lp_Variant>
269123-2

> <s_i_glide_gridfile>
glide-grid_1syn

> <i_i_glide_lignum>
783

> <i_i_glide_rotatable_bonds>
12

> <r_i_docking_score>
-8.01708289875907

> <r_i_glide_ligand_efficiency>
-0.216677916182678

> <r_i_glide_ligand_efficiency_sa>
-0.722018886203978

> <r_i_glide_ligand_efficiency_ln>
-1.73871733365158

> <r_i_glide_gscore>
-8.01708289875907

> <r_i_glide_lipo>
-3.71116761495399

> <r_i_glide_hbond>
-0.456

> <r_i_glide_metal>
0

> <r_i_glide_rewards>
-0.544794423977964

> <r_i_glide_evdw>
-53.9044418334961

> <r_i_glide_ecoul>
-9.53765678405762

> <r_i_glide_erotb>
0.824198572618117

> <r_i_glide_esite>
-0.00344882316178241

> <r_i_glide_emodel>
-91.20499234569

> <r_i_glide_energy>
-63.4420986175537

> <r_i_glide_einternal>
13.5788564682007

> <i_i_glide_confnum>
7

> <i_i_glide_posenum>
233

> <r_i_glide_eff_state_penalty>
0

> <s_user_duplicate_titles>
269123

> <s_m_subgroup_title>
dock_pv

> <s_m_subgroupid>
dock_pv1

> <b_m_subgroup_collapsed>
0

$$$$
834
                    3D
 Schrodinger Suite 2021-1.
 60 63  0  0  1  0            999 V2000
   12.9656   18.3605   29.1852 C   0  0  0  0  0  0
   13.6748   17.7470   30.3683 C   0  0  0  0  0  0
   14.5922   16.8653   30.2050 N   0  0  0  0  0  0
   15.2669   16.3540   31.3278 C   0  0  0  0  0  0
   16.2870   15.4277   31.1295 C   0  0  0  0  0  0
   17.0183   14.9587   32.2229 C   0  0  0  0  0  0
   16.7106   15.3815   33.5259 C   0  0  0  0  0  0
   15.6674   16.2900   33.7276 C   0  0  0  0  0  0
   14.9646   16.7805   32.6255 C   0  0  0  0  0  0
   13.8528   17.7843   32.7973 C   0  0  0  0  0  0
   13.3252   18.1819   31.6159 N   0  0  0  0  0  0
   13.4339   18.2086   33.8667 O   0  0  0  0  0  0
   17.5312   14.8947   34.7184 C   0  0  0  0  0  0
   17.4048   13.4484   34.9284 N   0  0  0  0  0  0
   18.3658   12.6349   34.1647 C   0  0  0  0  0  0
   18.9921   11.5497   34.9332 C   0  0  0  0  0  0
   19.4413   10.6276   35.5907 C   0  0  0  0  0  0
   16.2592   12.9010   35.5916 C   0  0  0  0  0  0
   15.9944   11.5200   35.5891 C   0  0  0  0  0  0
   14.9302   10.9702   36.2840 C   0  0  0  0  0  0
   14.0580   11.7951   36.9843 C   0  0  0  0  0  0
   14.2707   13.1800   36.9765 C   0  0  0  0  0  0
   15.3590   13.7192   36.2954 C   0  0  0  0  0  0
   12.9503   11.1731   37.7849 C   0  0  0  0  0  0
   13.1053   10.0840   38.3406 O   0  0  0  0  0  0
   11.8317   11.9040   37.8959 N   0  0  0  0  0  0
   10.8804   11.7605   38.9894 C   0  0  0  0  0  0
   11.3222   12.6265   40.1582 C   0  0  0  0  0  0
   10.6631   13.8275   40.4127 C   0  0  0  0  0  0
   11.0974   14.6475   41.4499 C   0  0  0  0  0  0
   12.1920   14.2828   42.2274 C   0  0  0  0  0  0
   12.8421   13.0623   42.0135 C   0  0  0  0  0  0
   12.3991   12.2397   40.9674 C   0  0  0  0  0  0
   13.9529   12.6103   42.9260 C   0  0  0  0  0  0
   14.5323   11.5376   42.7844 O   0  0  0  0  0  0
   14.1891   13.4282   43.9906 O   0  0  0  0  0  0
   13.2054   17.8400   28.2570 H   0  0  0  0  0  0
   11.8837   18.3312   29.3135 H   0  0  0  0  0  0
   13.2574   19.4034   29.0637 H   0  0  0  0  0  0
   16.5297   15.0987   30.1305 H   0  0  0  0  0  0
   17.8298   14.2681   32.0468 H   0  0  0  0  0  0
   15.4186   16.6247   34.7264 H   0  0  0  0  0  0
   12.6029   18.8775   31.7073 H   0  0  0  0  0  0
   18.5732   15.1585   34.5288 H   0  0  0  0  0  0
   17.2841   15.4276   35.6322 H   0  0  0  0  0  0
   17.8725   12.2177   33.2905 H   0  0  0  0  0  0
   19.1935   13.2354   33.7835 H   0  0  0  0  0  0
   19.7930    9.8281   36.1942 H   0  0  0  0  0  0
   16.5912   10.8241   35.0273 H   0  0  0  0  0  0
   14.7863    9.8984   36.2632 H   0  0  0  0  0  0
   13.6248   13.8503   37.5266 H   0  0  0  0  0  0
   15.4849   14.7874   36.3530 H   0  0  0  0  0  0
   11.7360   12.7161   37.3056 H   0  0  0  0  0  0
    9.8897   12.0579   38.6415 H   0  0  0  0  0  0
   10.7899   10.7235   39.3229 H   0  0  0  0  0  0
    9.8298   14.1402   39.7986 H   0  0  0  0  0  0
   10.5934   15.5838   41.6418 H   0  0  0  0  0  0
   12.4884   14.9449   43.0279 H   0  0  0  0  0  0
   12.8926   11.2967   40.7688 H   0  0  0  0  0  0
   14.7424   12.9250   44.6083 H   0  0  0  0  0  0
  1 37  1  0  0  0
  1 38  1  0  0  0
  1 39  1  0  0  0
  1  2  1  0  0  0
  2  3  2  0  0  0
  2 11  1  0  0  0
  3  4  1  0  0  0
  4  9  2  0  0  0
  4  5  1  0  0  0
  5  6  2  0  0  0
  5 40  1  0  0  0
  6  7  1  0  0  0
  6 41  1  0  0  0
  7  8  2  0  0  0
  7 13  1  0  0  0
  8  9  1  0  0  0
  8 42  1  0  0  0
  9 10  1  0  0  0
 10 12  2  0  0  0
 10 11  1  0  0  0
 11 43  1  0  0  0
 13 14  1  0  0  0
 13 44  1  0  0  0
 13 45  1  0  0  0
 14 15  1  0  0  0
 14 18  1  0  0  0
 15 16  1  0  0  0
 15 46  1  0  0  0
 15 47  1  0  0  0
 16 17  3  0  0  0
 17 48  1  0  0  0
 18 23  1  0  0  0
 18 19  2  0  0  0
 19 20  1  0  0  0
 19 49  1  0  0  0
 20 21  2  0  0  0
 20 50  1  0  0  0
 21 22  1  0  0  0
 21 24  1  0  0  0
 22 23  2  0  0  0
 22 51  1  0  0  0
 23 52  1  0  0  0
 24 25  2  0  0  0
 24 26  1  0  0  0
 26 27  1  0  0  0
 26 53  1  0  0  0
 27 28  1  0  0  0
 27 54  1  0  0  0
 27 55  1  0  0  0
 28 33  1  0  0  0
 28 29  2  0  0  0
 29 30  1  0  0  0
 29 56  1  0  0  0
 30 31  2  0  0  0
 30 57  1  0  0  0
 31 32  1  0  0  0
 31 58  1  0  0  0
 32 33  2  0  0  0
 32 34  1  0  0  0
 33 59  1  0  0  0
 34 35  2  0  0  0
 34 36  1  0  0  0
 36 60  1  0  0  0
M  END
> <s_m_entry_id>
41793

> <s_m_entry_name>
ligand_docking-pose.153

> <s_m_Source_Path>
/home/csk/Desktop/cluster/DUD-E-result/tysy

> <s_m_Source_File>
ligand_docking-pose.sdf

> <i_m_Source_File_Index>
153

> <i_lp_mmshare_version>
53161

> <i_f3d_flags>
0

> <r_lp_tautomer_probability>
0.883938

> <s_lp_Force_Field>
OPLS_2005

> <r_lp_Energy>
29.843581

> <b_lp_Chiralities_Consistent>
1

> <s_lp_Variant>
834-1

> <s_i_glide_gridfile>
glide-grid_1syn

> <i_i_glide_lignum>
534

> <i_i_glide_rotatable_bonds>
11

> <r_i_docking_score>
-8.01287950900333

> <r_i_glide_ligand_efficiency>
-0.222579986361204

> <r_i_glide_ligand_efficiency_sa>
-0.734942921146759

> <r_i_glide_ligand_efficiency_ln>
-1.74819382587789

> <r_i_glide_gscore>
-8.01287950900333

> <r_i_glide_lipo>
-3.70684940746755

> <r_i_glide_hbond>
0

> <r_i_glide_metal>
0

> <r_i_glide_rewards>
-0.822893163280207

> <r_i_glide_evdw>
-59.771614074707

> <r_i_glide_ecoul>
-9.14975547790527

> <r_i_glide_erotb>
0.87830714518951

> <r_i_glide_esite>
-0.00040005802394935

> <r_i_glide_emodel>
-97.3514153215947

> <r_i_glide_energy>
-68.9213695526123

> <r_i_glide_einternal>
6.86343097686768

> <i_i_glide_confnum>
6

> <i_i_glide_posenum>
127

> <r_i_glide_eff_state_penalty>
0

> <s_user_duplicate_titles>
834

> <s_m_subgroup_title>
dock_pv

> <s_m_subgroupid>
dock_pv1

> <b_m_subgroup_collapsed>
0

$$$$
61314
                    3D
 Schrodinger Suite 2021-1.
 57 59  0  0  1  0            999 V2000
   12.6808   18.3730   29.2673 C   0  0  0  0  0  0
   13.6460   17.5292   30.0670 C   0  0  0  0  0  0
   13.5923   17.6629   31.4391 N   0  0  0  0  0  0
   14.4786   16.9487   32.2488 C   0  0  0  0  0  0
   14.4568   17.0870   33.6297 C   0  0  0  0  0  0
   15.3916   16.3980   34.3999 C   0  0  0  0  0  0
   16.3630   15.5851   33.8015 C   0  0  0  0  0  0
   16.3640   15.4296   32.4095 C   0  0  0  0  0  0
   15.4102   16.1058   31.6305 C   0  0  0  0  0  0
   15.3922   15.9623   30.1146 C   0  0  0  0  0  0
   14.4483   16.7532   29.4435 N   0  0  0  0  0  0
   16.1909   15.2030   29.5717 O   0  0  0  0  0  0
   17.4628   14.9538   34.6603 C   0  0  0  0  0  0
   17.3250   13.4957   34.8306 N   0  0  0  0  0  0
   18.2084   12.7346   33.9121 C   0  0  0  0  0  0
   18.7519   11.3668   34.3870 C   0  0  0  0  0  0
   19.4198   11.4047   35.5402 F   0  0  0  0  0  0
   16.2966   12.9936   35.6291 C   0  0  0  0  0  0
   15.5155   13.6854   36.5598 C   0  0  0  0  0  0
   14.5923   12.8881   37.2480 C   0  0  0  0  0  0
   14.6610   11.5447   36.9019 C   0  0  0  0  0  0
   15.7922   11.3291   35.5953 S   0  0  0  0  0  0
   13.8993   10.4497   37.4620 C   0  0  0  0  0  0
   12.9637   10.6535   38.2364 O   0  0  0  0  0  0
   14.3120    9.2221   37.0958 N   0  0  0  0  0  0
   13.7030    7.9442   37.4777 C   0  0  2  0  0  0
   14.8176    6.8737   37.6053 C   0  0  0  0  0  0
   14.3462    5.4715   38.0532 C   0  0  0  0  0  0
   15.5282    4.5278   38.2762 C   0  0  0  0  0  0
   16.1914    4.5044   39.3110 O   0  0  0  0  0  0
   15.7920    3.7452   37.1915 O   0  0  0  0  0  0
   12.5869    7.5483   36.4906 C   0  0  0  0  0  0
   11.4919    7.1758   36.8497 O   0  0  0  0  0  0
   12.9925    7.6625   35.1914 O   0  0  0  0  0  0
   13.2366    8.0712   38.4572 H   0  0  0  0  0  0
   12.8375   18.2612   28.1941 H   0  0  0  0  0  0
   11.6481   18.0992   29.4844 H   0  0  0  0  0  0
   12.8038   19.4296   29.5031 H   0  0  0  0  0  0
   13.7376   17.7396   34.1029 H   0  0  0  0  0  0
   15.3816   16.5355   35.4708 H   0  0  0  0  0  0
   17.1169   14.8053   31.9434 H   0  0  0  0  0  0
   12.9444   18.3098   31.8571 H   0  0  0  0  0  0
   17.4961   15.4234   35.6446 H   0  0  0  0  0  0
   18.4208   15.2224   34.2123 H   0  0  0  0  0  0
   17.7747   12.6340   32.9183 H   0  0  0  0  0  0
   19.1065   13.3416   33.7870 H   0  0  0  0  0  0
   18.0001   10.5949   34.4945 H   0  0  0  0  0  0
   19.3920   10.9420   33.6240 H   0  0  0  0  0  0
   15.6242   14.7372   36.7712 H   0  0  0  0  0  0
   13.9301   13.2755   38.0082 H   0  0  0  0  0  0
   15.0314    9.1680   36.3912 H   0  0  0  0  0  0
   15.5453    7.2335   38.3358 H   0  0  0  0  0  0
   15.3598    6.7889   36.6611 H   0  0  0  0  0  0
   13.6559    5.0339   37.3305 H   0  0  0  0  0  0
   13.7987    5.5528   38.9927 H   0  0  0  0  0  0
   15.1400    3.8293   36.4847 H   0  0  0  0  0  0
   12.2369    7.4279   34.6218 H   0  0  0  0  0  0
  1 36  1  0  0  0
  1 37  1  0  0  0
  1 38  1  0  0  0
  1  2  1  0  0  0
  2  3  1  0  0  0
  2 11  2  0  0  0
  3  4  1  0  0  0
  3 42  1  0  0  0
  4  9  2  0  0  0
  4  5  1  0  0  0
  5  6  2  0  0  0
  5 39  1  0  0  0
  6  7  1  0  0  0
  6 40  1  0  0  0
  7  8  2  0  0  0
  7 13  1  0  0  0
  8  9  1  0  0  0
  8 41  1  0  0  0
  9 10  1  0  0  0
 10 12  2  0  0  0
 10 11  1  0  0  0
 13 14  1  0  0  0
 13 43  1  0  0  0
 13 44  1  0  0  0
 14 15  1  0  0  0
 14 18  1  0  0  0
 15 16  1  0  0  0
 15 45  1  0  0  0
 15 46  1  0  0  0
 16 17  1  0  0  0
 16 47  1  0  0  0
 16 48  1  0  0  0
 18 22  1  0  0  0
 18 19  2  0  0  0
 19 20  1  0  0  0
 19 49  1  0  0  0
 20 21  2  0  0  0
 20 50  1  0  0  0
 21 22  1  0  0  0
 21 23  1  0  0  0
 23 24  2  0  0  0
 23 25  1  0  0  0
 25 26  1  0  0  0
 25 51  1  0  0  0
 26 35  1  0  0  0
 26 27  1  0  0  0
 26 32  1  0  0  0
 27 28  1  0  0  0
 27 52  1  0  0  0
 27 53  1  0  0  0
 28 29  1  0  0  0
 28 54  1  0  0  0
 28 55  1  0  0  0
 29 30  2  0  0  0
 29 31  1  0  0  0
 31 56  1  0  0  0
 32 33  2  0  0  0
 32 34  1  0  0  0
 34 57  1  0  0  0
M  END
> <s_m_entry_id>
41796

> <s_m_entry_name>
ligand_docking-pose.156

> <s_m_Source_Path>
/home/csk/Desktop/cluster/DUD-E-result/tysy

> <s_m_Source_File>
ligand_docking-pose.sdf

> <i_m_Source_File_Index>
156

> <i_lp_mmshare_version>
53161

> <i_f3d_flags>
0

> <r_lp_tautomer_probability>
0.116051

> <s_lp_Force_Field>
OPLS_2005

> <r_lp_Energy>
11.159372

> <b_lp_Chiralities_Consistent>
1

> <s_lp_Variant>
61314-2

> <s_i_glide_gridfile>
glide-grid_1syn

> <i_i_glide_lignum>
667

> <i_i_glide_rotatable_bonds>
14

> <r_i_docking_score>
-7.99325491054743

> <r_i_glide_ligand_efficiency>
-0.23509573266316

> <r_i_glide_ligand_efficiency_sa>
-0.7616189090703

> <r_i_glide_ligand_efficiency_ln>
-1.7659342129459

> <r_i_glide_gscore>
-7.99325491054743

> <r_i_glide_lipo>
-3.3285902129146

> <r_i_glide_hbond>
0

> <r_i_glide_metal>
0

> <r_i_glide_rewards>
-0.760558001793849

> <r_i_glide_evdw>
-51.028507232666

> <r_i_glide_ecoul>
-14.6833791732788

> <r_i_glide_erotb>
0.930445075553608

> <r_i_glide_esite>
-0.0806195337674638

> <r_i_glide_emodel>
-94.8863765044172

> <r_i_glide_energy>
-65.7118864059448

> <r_i_glide_einternal>
10.2245187759399

> <i_i_glide_confnum>
101

> <i_i_glide_posenum>
103

> <r_i_glide_eff_state_penalty>
0

> <s_user_duplicate_titles>
61314

> <s_m_subgroup_title>
dock_pv

> <s_m_subgroupid>
dock_pv1

> <b_m_subgroup_collapsed>
0

$$$$
3877
                    3D
 Schrodinger Suite 2021-1.
 32 33  0  0  1  0            999 V2000
   15.7303   15.0274   34.9266 C   0  0  0  0  0  0
   16.1254   13.9125   35.5920 C   0  0  0  0  0  0
   17.2937   13.1908   35.0832 C   0  0  0  0  0  0
   17.8024   12.1954   35.5908 O   0  0  0  0  0  0
   17.7946   13.7211   33.9318 N   0  0  0  0  0  0
   17.3705   14.7985   33.2023 C   0  0  0  0  0  0
   17.8893   15.0294   32.1130 O   0  0  0  0  0  0
   16.3257   15.5011   33.7782 N   0  0  0  0  0  0
   15.6900   16.5724   33.0071 C   0  0  2  0  0  0
   15.0467   17.7607   33.7520 C   0  0  0  0  0  0
   13.5649   17.4963   33.5236 C   0  0  2  0  0  0
   13.5520   16.8624   32.1385 C   0  0  2  0  0  0
   14.6806   16.0107   32.2179 O   0  0  0  0  0  0
   13.7887   17.8230   31.1167 O   0  0  0  0  0  0
   12.6354   18.1425   30.0140 P   0  0  0  0  0  0
   11.8263   16.9683   29.5902 O   0  0  0  0  0  0
   11.7934   19.3571   30.6715 O   0  0  0  0  0  0
   13.4725   18.8923   28.8513 O   0  0  0  0  0  0
   12.7255   18.6280   33.5888 O   0  0  0  0  0  0
   15.3240   13.4188   36.7387 N   0  3  0  0  0  0
   14.5922   14.2282   37.3042 O   0  5  0  0  0  0
   15.3917   12.2267   37.0261 O   0  0  0  0  0  0
   18.5711   13.2147   33.5295 H   0  0  0  0  0  0
   14.8640   15.5985   35.2239 H   0  0  0  0  0  0
   16.4566   16.9679   32.3337 H   0  0  0  0  0  0
   15.3368   17.8095   34.7995 H   0  0  0  0  0  0
   15.3564   18.6856   33.2626 H   0  0  0  0  0  0
   13.2102   16.7613   34.2478 H   0  0  0  0  0  0
   12.6419   16.2903   31.9434 H   0  0  0  0  0  0
   10.8418   19.4283   30.3915 H   0  0  0  0  0  0
   14.0361   19.6151   29.1928 H   0  0  0  0  0  0
   12.9910   19.2445   34.2903 H   0  0  0  0  0  0
  1  8  1  0  0  0
  1  2  2  0  0  0
  1 24  1  0  0  0
  2  3  1  0  0  0
  2 20  1  0  0  0
  3  4  2  0  0  0
  3  5  1  0  0  0
  5 23  1  0  0  0
  5  6  1  0  0  0
  6  7  2  0  0  0
  6  8  1  0  0  0
  8  9  1  0  0  0
  9 13  1  0  0  0
  9 10  1  0  0  0
  9 25  1  0  0  0
 10 11  1  0  0  0
 10 26  1  0  0  0
 10 27  1  0  0  0
 11 12  1  0  0  0
 11 19  1  0  0  0
 11 28  1  0  0  0
 12 13  1  0  0  0
 12 14  1  0  0  0
 12 29  1  0  0  0
 14 15  1  0  0  0
 15 16  2  0  0  0
 15 17  1  0  0  0
 15 18  1  0  0  0
 17 30  1  0  0  0
 18 31  1  0  0  0
 19 32  1  0  0  0
 20 21  1  0  0  0
 20 22  2  0  0  0
M  CHG  2  20   1  21  -1
M  END
> <s_m_entry_id>
41800

> <s_m_entry_name>
ligand_docking-pose.160

> <s_m_Source_Path>
/home/csk/Desktop/cluster/DUD-E-result/tysy

> <s_m_Source_File>
ligand_docking-pose.sdf

> <i_m_Source_File_Index>
160

> <i_lp_mmshare_version>
53161

> <i_f3d_flags>
0

> <r_lp_tautomer_probability>
1

> <s_lp_Force_Field>
OPLS_2005

> <r_lp_Energy>
28.305525

> <b_lp_Chiralities_Consistent>
1

> <s_lp_Variant>
3877-7

> <s_i_glide_gridfile>
glide-grid_1syn

> <i_i_glide_lignum>
160

> <i_i_glide_rotatable_bonds>
7

> <r_i_docking_score>
-7.98370108328366

> <r_i_glide_ligand_efficiency>
-0.362895503785621

> <r_i_glide_ligand_efficiency_sa>
-1.0168474734776

> <r_i_glide_ligand_efficiency_ln>
-1.9515077573272

> <r_i_glide_gscore>
-7.98370108328366

> <r_i_glide_lipo>
-1.29024946790084

> <r_i_glide_hbond>
-0.0462637533539855

> <r_i_glide_metal>
0

> <r_i_glide_rewards>
-2.72648285736067

> <r_i_glide_evdw>
-37.7351875305176

> <r_i_glide_ecoul>
-16.8495540618896

> <r_i_glide_erotb>
0.493487481141164

> <r_i_glide_esite>
0

> <r_i_glide_emodel>
-78.6340915099502

> <r_i_glide_energy>
-54.5847415924072

> <r_i_glide_einternal>
4.83081531524658

> <i_i_glide_confnum>
27

> <i_i_glide_posenum>
380

> <r_i_glide_eff_state_penalty>
0

> <s_user_duplicate_titles>
3877

> <s_m_subgroup_title>
dock_pv

> <s_m_subgroupid>
dock_pv1

> <b_m_subgroup_collapsed>
0

$$$$
641298
                    3D
 Schrodinger Suite 2021-1.
 43 45  0  0  1  0            999 V2000
   13.9521   18.1967   32.5203 C   0  0  0  0  0  0
   14.0643   18.0114   33.8934 C   0  0  0  0  0  0
   14.8953   17.0155   34.3916 C   0  0  0  0  0  0
   15.6193   16.1796   33.5293 C   0  0  0  0  0  0
   15.4879   16.3790   32.1457 C   0  0  0  0  0  0
   14.6601   17.3819   31.6433 C   0  0  0  0  0  0
   16.4071   15.0391   34.0867 C   0  0  0  0  0  0
   15.9725   14.3868   35.1907 C   0  0  0  0  0  0
   16.5561   13.2622   35.7194 N   0  0  0  0  0  0
   17.7374   12.7742   35.1899 C   0  0  0  0  0  0
   18.3571   11.7872   35.5888 O   0  0  0  0  0  0
   18.1881   13.4702   34.1010 N   0  0  0  0  0  0
   17.6458   14.5498   33.4683 C   0  0  0  0  0  0
   18.1921   15.0280   32.4798 O   0  0  0  0  0  0
   15.8463   12.4183   36.6771 C   0  0  1  0  0  0
   14.5440   12.8855   37.3262 C   0  0  0  0  0  0
   14.0620   11.5636   37.9025 C   0  0  2  0  0  0
   14.4709   10.5446   36.8259 C   0  0  1  0  0  0
   15.4901   11.2054   36.0876 O   0  0  0  0  0  0
   15.0476    9.2043   37.3232 C   0  0  0  0  0  0
   14.0241    8.2289   37.4023 O   0  0  0  0  0  0
   13.6599    7.3328   36.0908 P   0  0  0  0  0  0
   14.1918    7.8276   34.7912 O   0  0  0  0  0  0
   14.1170    5.8392   36.5259 O   0  0  0  0  0  0
   12.0518    7.2318   36.1400 O   0  0  0  0  0  0
   12.6757   11.5881   38.1768 O   0  0  0  0  0  0
   19.0366   13.1131   33.6834 H   0  0  0  0  0  0
   13.3087   18.9749   32.1345 H   0  0  0  0  0  0
   13.4994   18.6285   34.5746 H   0  0  0  0  0  0
   14.9662   16.8973   35.4625 H   0  0  0  0  0  0
   16.0041   15.7383   31.4458 H   0  0  0  0  0  0
   14.5649   17.5251   30.5768 H   0  0  0  0  0  0
   15.0749   14.6886   35.7013 H   0  0  0  0  0  0
   16.5919   12.2205   37.4492 H   0  0  0  0  0  0
   13.8457   13.2392   36.5663 H   0  0  0  0  0  0
   14.7208   13.6639   38.0687 H   0  0  0  0  0  0
   14.5983   11.3671   38.8312 H   0  0  0  0  0  0
   13.6760   10.3835   36.0953 H   0  0  0  0  0  0
   15.5182    9.3219   38.2989 H   0  0  0  0  0  0
   15.8355    8.8560   36.6523 H   0  0  0  0  0  0
   13.7946    5.1026   35.9629 H   0  0  0  0  0  0
   11.6354    7.2176   35.2484 H   0  0  0  0  0  0
   12.1996   11.7307   37.3544 H   0  0  0  0  0  0
  1  6  1  0  0  0
  1  2  2  0  0  0
  1 28  1  0  0  0
  2  3  1  0  0  0
  2 29  1  0  0  0
  3  4  2  0  0  0
  3 30  1  0  0  0
  4  5  1  0  0  0
  4  7  1  0  0  0
  5  6  2  0  0  0
  5 31  1  0  0  0
  6 32  1  0  0  0
  7 13  1  0  0  0
  7  8  2  0  0  0
  8  9  1  0  0  0
  8 33  1  0  0  0
  9 10  1  0  0  0
  9 15  1  0  0  0
 10 11  2  0  0  0
 10 12  1  0  0  0
 12 27  1  0  0  0
 12 13  1  0  0  0
 13 14  2  0  0  0
 15 19  1  0  0  0
 15 16  1  0  0  0
 15 34  1  0  0  0
 16 17  1  0  0  0
 16 35  1  0  0  0
 16 36  1  0  0  0
 17 18  1  0  0  0
 17 26  1  0  0  0
 17 37  1  0  0  0
 18 19  1  0  0  0
 18 20  1  0  0  0
 18 38  1  0  0  0
 20 21  1  0  0  0
 20 39  1  0  0  0
 20 40  1  0  0  0
 21 22  1  0  0  0
 22 23  2  0  0  0
 22 24  1  0  0  0
 22 25  1  0  0  0
 24 41  1  0  0  0
 25 42  1  0  0  0
 26 43  1  0  0  0
M  END
> <s_m_entry_id>
41804

> <s_m_entry_name>
ligand_docking-pose.164

> <s_m_Source_Path>
/home/csk/Desktop/cluster/DUD-E-result/tysy

> <s_m_Source_File>
ligand_docking-pose.sdf

> <i_m_Source_File_Index>
164

> <i_lp_mmshare_version>
53161

> <i_f3d_flags>
0

> <r_lp_tautomer_probability>
0.999537046341301

> <s_lp_Force_Field>
OPLS_2005

> <r_lp_Energy>
18.861817

> <b_lp_Chiralities_Consistent>
1

> <s_lp_Variant>
641298-4

> <s_i_glide_gridfile>
glide-grid_1syn

> <i_i_glide_lignum>
22

> <i_i_glide_rotatable_bonds>
8

> <r_i_docking_score>
-7.95747784343482

> <r_i_glide_ligand_efficiency>
-0.306056840132109

> <r_i_glide_ligand_efficiency_sa>
-0.906692184615858

> <r_i_glide_ligand_efficiency_ln>
-1.86878756091619

> <r_i_glide_gscore>
-7.95747784343482

> <r_i_glide_lipo>
-2.45357541922112

> <r_i_glide_hbond>
-0.288

> <r_i_glide_metal>
0

> <r_i_glide_rewards>
-1.71882970548911

> <r_i_glide_evdw>
-39.0851631164551

> <r_i_glide_ecoul>
-14.5371885299683

> <r_i_glide_erotb>
0.65825800788926

> <r_i_glide_esite>
-0.0204942912958569

> <r_i_glide_emodel>
-71.9010347022831

> <r_i_glide_energy>
-53.6223516464233

> <r_i_glide_einternal>
12.3012685775757

> <i_i_glide_confnum>
238

> <i_i_glide_posenum>
238

> <r_i_glide_eff_state_penalty>
0

> <s_user_duplicate_titles>
641298

> <s_m_subgroup_title>
dock_pv

> <s_m_subgroupid>
dock_pv1

> <b_m_subgroup_collapsed>
0

$$$$
207449
                    3D
 Schrodinger Suite 2021-1.
 67 70  0  0  1  0            999 V2000
   16.1154   14.0805   29.7317 C   0  0  0  0  0  0
   15.7267   15.1754   30.7060 C   0  0  0  0  0  0
   14.7434   16.0874   30.3013 C   0  0  0  0  0  0
   14.3295   17.0951   31.1624 C   0  0  0  0  0  0
   14.9084   17.1847   32.4273 C   0  0  0  0  0  0
   15.8962   16.3034   32.8407 C   0  0  0  0  0  0
   16.3065   15.2729   31.9909 C   0  0  0  0  0  0
   17.3697   14.2688   32.4555 C   0  0  0  0  0  0
   17.8178   14.4545   33.8592 N   0  0  0  0  0  0
   19.1497   14.9485   34.2154 C   0  0  0  0  0  0
   20.1943   14.6280   33.2420 C   0  0  0  0  0  0
   20.9605   14.6280   32.2938 C   0  0  0  0  0  0
   17.3206   13.5098   34.7585 C   0  0  0  0  0  0
   16.2652   13.8696   35.5915 C   0  0  0  0  0  0
   15.6568   12.9103   36.3898 C   0  0  0  0  0  0
   16.0918   11.5759   36.3530 C   0  0  0  0  0  0
   17.2132   11.2453   35.5770 C   0  0  0  0  0  0
   17.8300   12.2141   34.7916 C   0  0  0  0  0  0
   17.6670    9.9751   35.4953 F   0  0  0  0  0  0
   15.2773   10.4980   37.0066 C   0  0  0  0  0  0
   15.7911    9.5389   37.5853 O   0  0  0  0  0  0
   13.9567   10.6674   36.8331 N   0  0  0  0  0  0
   12.8683    9.7472   37.1562 C   0  0  2  0  0  0
   12.8664    9.2085   38.6171 C   0  0  0  0  0  0
   13.1101   10.2610   39.7301 C   0  0  0  0  0  0
   12.1377   11.4625   39.7145 C   0  0  0  0  0  0
   12.4091   12.5053   40.7864 C   0  0  0  0  0  0
   13.2444   12.4173   41.7960 N   0  0  0  0  0  0
   13.1240   13.6231   42.4870 N   0  0  0  0  0  0
   12.1924   14.4366   41.8705 N   0  0  0  0  0  0
   11.7701   13.7180   40.8300 N   0  0  0  0  0  0
   12.7705    8.6286   36.0942 C   0  0  0  0  0  0
   13.6840    8.2267   35.4001 O   0  0  0  0  0  0
   11.4774    8.2283   35.9921 O   0  0  0  0  0  0
   14.4773   18.3036   33.3233 C   0  0  0  0  0  0
   13.4803   19.0381   32.7913 N   0  0  0  0  0  0
   12.9823   18.9479   31.5272 C   0  0  0  0  0  0
   13.3549   18.0115   30.7296 N   0  0  0  0  0  0
   12.0054   20.0118   31.1090 C   0  0  0  0  0  0
   14.9906   18.5881   34.3931 O   0  0  0  0  0  0
   11.0927   14.0576   40.1616 H   0  0  0  0  0  0
   16.9921   14.4113   29.1896 H   0  0  0  0  0  0
   16.3419   13.1355   30.2241 H   0  0  0  0  0  0
   15.3156   13.8684   29.0205 H   0  0  0  0  0  0
   14.2983   16.0236   29.3204 H   0  0  0  0  0  0
   16.3346   16.4227   33.8220 H   0  0  0  0  0  0
   16.9893   13.2559   32.3216 H   0  0  0  0  0  0
   18.1909   14.3472   31.7451 H   0  0  0  0  0  0
   19.1035   16.0363   34.2872 H   0  0  0  0  0  0
   19.4848   14.5864   35.1869 H   0  0  0  0  0  0
   21.3952   14.5727   31.3279 H   0  0  0  0  0  0
   15.8870   14.8816   35.5881 H   0  0  0  0  0  0
   14.8116   13.2090   36.9943 H   0  0  0  0  0  0
   18.6598   11.9412   34.1534 H   0  0  0  0  0  0
   13.6748   11.4763   36.3014 H   0  0  0  0  0  0
   11.9724   10.3586   37.0329 H   0  0  0  0  0  0
   11.9185    8.7038   38.8136 H   0  0  0  0  0  0
   13.6305    8.4343   38.7182 H   0  0  0  0  0  0
   13.0434    9.7580   40.6965 H   0  0  0  0  0  0
   14.1372   10.6237   39.6657 H   0  0  0  0  0  0
   12.1907   11.9481   38.7402 H   0  0  0  0  0  0
   11.1160   11.0922   39.8054 H   0  0  0  0  0  0
   11.3923    7.6234   35.2420 H   0  0  0  0  0  0
   11.7793   19.9428   30.0453 H   0  0  0  0  0  0
   11.0803   19.9265   31.6768 H   0  0  0  0  0  0
   12.4107   21.0058   31.2912 H   0  0  0  0  0  0
   13.1625   19.7818   33.4035 H   0  0  0  0  0  0
  1 42  1  0  0  0
  1 43  1  0  0  0
  1 44  1  0  0  0
  1  2  1  0  0  0
  2  7  1  0  0  0
  2  3  2  0  0  0
  3 45  1  0  0  0
  3  4  1  0  0  0
  4  5  2  0  0  0
  4 38  1  0  0  0
  5 35  1  0  0  0
  5  6  1  0  0  0
  6 46  1  0  0  0
  6  7  2  0  0  0
  7  8  1  0  0  0
  8  9  1  0  0  0
  8 47  1  0  0  0
  8 48  1  0  0  0
  9 10  1  0  0  0
  9 13  1  0  0  0
 10 11  1  0  0  0
 10 49  1  0  0  0
 10 50  1  0  0  0
 11 12  3  0  0  0
 12 51  1  0  0  0
 13 18  1  0  0  0
 13 14  2  0  0  0
 14 15  1  0  0  0
 14 52  1  0  0  0
 15 16  2  0  0  0
 15 53  1  0  0  0
 16 17  1  0  0  0
 16 20  1  0  0  0
 17 18  2  0  0  0
 17 19  1  0  0  0
 18 54  1  0  0  0
 20 21  2  0  0  0
 20 22  1  0  0  0
 22 23  1  0  0  0
 22 55  1  0  0  0
 23 24  1  0  0  0
 23 32  1  0  0  0
 23 56  1  0  0  0
 24 25  1  0  0  0
 24 57  1  0  0  0
 24 58  1  0  0  0
 25 26  1  0  0  0
 25 59  1  0  0  0
 25 60  1  0  0  0
 26 61  1  0  0  0
 26 62  1  0  0  0
 26 27  1  0  0  0
 27 28  2  0  0  0
 27 31  1  0  0  0
 28 29  1  0  0  0
 29 30  2  0  0  0
 30 31  1  0  0  0
 31 41  1  0  0  0
 32 33  2  0  0  0
 32 34  1  0  0  0
 34 63  1  0  0  0
 35 40  2  0  0  0
 35 36  1  0  0  0
 36 37  1  0  0  0
 36 67  1  0  0  0
 37 38  2  0  0  0
 37 39  1  0  0  0
 39 64  1  0  0  0
 39 65  1  0  0  0
 39 66  1  0  0  0
M  END
> <s_m_entry_id>
41806

> <s_m_entry_name>
ligand_docking-pose.166

> <s_m_Source_Path>
/home/csk/Desktop/cluster/DUD-E-result/tysy

> <s_m_Source_File>
ligand_docking-pose.sdf

> <i_m_Source_File_Index>
166

> <i_lp_mmshare_version>
53161

> <i_f3d_flags>
0

> <r_lp_tautomer_probability>
0.2651814

> <s_lp_Force_Field>
OPLS_2005

> <r_lp_Energy>
32.033005

> <b_lp_Chiralities_Consistent>
1

> <s_lp_Variant>
207449-1

> <s_i_glide_gridfile>
glide-grid_1syn

> <i_i_glide_lignum>
199

> <i_i_glide_rotatable_bonds>
14

> <r_i_docking_score>
-7.92665285357131

> <r_i_glide_ligand_efficiency>
-0.198166321339283

> <r_i_glide_ligand_efficiency_sa>
-0.677719285029816

> <r_i_glide_ligand_efficiency_ln>
-1.69052178268661

> <r_i_glide_gscore>
-7.92665285357131

> <r_i_glide_lipo>
-3.74533013626859

> <r_i_glide_hbond>
-0.429909194185082

> <r_i_glide_metal>
0

> <r_i_glide_rewards>
0.509249581192708

> <r_i_glide_evdw>
-52.9189147949219

> <r_i_glide_ecoul>
-15.3704195022583

> <r_i_glide_erotb>
0.831976555457049

> <r_i_glide_esite>
-0.141130994682556

> <r_i_glide_emodel>
-80.701890922841

> <r_i_glide_energy>
-68.2893342971802

> <r_i_glide_einternal>
14.6190509796143

> <i_i_glide_confnum>
22

> <i_i_glide_posenum>
29

> <r_i_glide_eff_state_penalty>
0

> <s_user_duplicate_titles>
207449

> <s_m_subgroup_title>
dock_pv

> <s_m_subgroupid>
dock_pv1

> <b_m_subgroup_collapsed>
0

$$$$
152161
                    3D
 Schrodinger Suite 2021-1.
 59 61  0  0  1  0            999 V2000
   19.2022   10.3241   35.4041 C   0  0  0  0  0  0
   18.9264   11.3387   34.7907 C   0  0  0  0  0  0
   18.4661   12.5235   34.0477 C   0  0  0  0  0  0
   17.7332   13.5097   34.8576 N   0  0  0  0  0  0
   18.0011   14.8972   34.4582 C   0  0  0  0  0  0
   17.0781   15.3454   33.3294 C   0  0  0  0  0  0
   17.2768   14.8967   32.0214 C   0  0  0  0  0  0
   16.4399   15.3128   30.9877 C   0  0  0  0  0  0
   15.3922   16.2289   31.2480 C   0  0  0  0  0  0
   15.1912   16.6999   32.5808 C   0  0  0  0  0  0
   16.0385   16.2284   33.6073 C   0  0  0  0  0  0
   14.1457   17.6322   32.8110 C   0  0  0  0  0  0
   13.3797   18.0703   31.7386 C   0  0  0  0  0  0
   13.6316   17.5568   30.4676 C   0  0  0  0  0  0
   14.6132   16.6504   30.2146 N   0  0  0  0  0  0
   12.7611   17.9527   29.2839 C   0  0  0  0  0  0
   12.1999   19.1503   29.4569 F   0  0  0  0  0  0
   13.4605   17.9854   28.1477 F   0  0  0  0  0  0
   11.8001   17.0341   29.1911 F   0  0  0  0  0  0
   13.7930   18.2279   34.3914 Cl  0  0  0  0  0  0
   16.5390   13.1882   35.5835 C   0  0  0  0  0  0
   15.8625   14.1604   36.3351 C   0  0  0  0  0  0
   14.7283   13.8469   37.0792 C   0  0  0  0  0  0
   14.2328   12.5364   37.1030 C   0  0  0  0  0  0
   14.8750   11.5644   36.3394 C   0  0  0  0  0  0
   15.9962   11.8913   35.5907 C   0  0  0  0  0  0
   13.0731   12.1389   37.9797 C   0  0  0  0  0  0
   12.9318   10.9732   38.3547 O   0  0  0  0  0  0
   12.2526   13.1320   38.3544 N   0  0  0  0  0  0
   11.1463   13.0202   39.3099 C   0  0  1  0  0  0
   11.6417   13.5258   40.7084 C   0  0  0  0  0  0
   12.9086   12.7822   41.2308 C   0  0  0  0  0  0
   13.3920   13.1743   42.6296 C   0  0  0  0  0  0
   13.1064   14.2281   43.1913 O   0  0  0  0  0  0
   14.1578   12.1935   43.1909 O   0  0  0  0  0  0
    9.8926   13.7244   38.7273 C   0  0  0  0  0  0
    9.8063   14.1411   37.5910 O   0  0  0  0  0  0
    8.9009   13.8280   39.6496 O   0  0  0  0  0  0
   10.8579   11.9718   39.4067 H   0  0  0  0  0  0
   19.3920    9.4327   35.9448 H   0  0  0  0  0  0
   17.8190   12.2227   33.2258 H   0  0  0  0  0  0
   19.3620   12.9502   33.5919 H   0  0  0  0  0  0
   19.0288   14.9980   34.1041 H   0  0  0  0  0  0
   17.9531   15.5661   35.3131 H   0  0  0  0  0  0
   18.0872   14.2159   31.7994 H   0  0  0  0  0  0
   16.5992   14.9537   29.9803 H   0  0  0  0  0  0
   15.8653   16.5683   34.6155 H   0  0  0  0  0  0
   12.5807   18.7801   31.9026 H   0  0  0  0  0  0
   16.2218   15.1735   36.3911 H   0  0  0  0  0  0
   14.2809   14.6338   37.6687 H   0  0  0  0  0  0
   14.5153   10.5449   36.3207 H   0  0  0  0  0  0
   16.4142   11.0962   35.0005 H   0  0  0  0  0  0
   12.3405   14.0262   37.8966 H   0  0  0  0  0  0
   11.8627   14.5932   40.6560 H   0  0  0  0  0  0
   10.8428   13.4267   41.4421 H   0  0  0  0  0  0
   12.7234   11.7073   41.2170 H   0  0  0  0  0  0
   13.7536   12.9538   40.5649 H   0  0  0  0  0  0
   14.4741   12.3737   44.0871 H   0  0  0  0  0  0
    8.1931   14.3412   39.2433 H   0  0  0  0  0  0
  1  2  3  0  0  0
  1 40  1  0  0  0
  2  3  1  0  0  0
  3  4  1  0  0  0
  3 41  1  0  0  0
  3 42  1  0  0  0
  4  5  1  0  0  0
  4 21  1  0  0  0
  5  6  1  0  0  0
  5 43  1  0  0  0
  5 44  1  0  0  0
  6 11  1  0  0  0
  6  7  2  0  0  0
  7  8  1  0  0  0
  7 45  1  0  0  0
  8  9  2  0  0  0
  8 46  1  0  0  0
  9 15  1  0  0  0
  9 10  1  0  0  0
 10 11  2  0  0  0
 10 12  1  0  0  0
 11 47  1  0  0  0
 12 13  2  0  0  0
 12 20  1  0  0  0
 13 14  1  0  0  0
 13 48  1  0  0  0
 14 15  2  0  0  0
 14 16  1  0  0  0
 16 17  1  0  0  0
 16 18  1  0  0  0
 16 19  1  0  0  0
 21 26  1  0  0  0
 21 22  2  0  0  0
 22 23  1  0  0  0
 22 49  1  0  0  0
 23 24  2  0  0  0
 23 50  1  0  0  0
 24 25  1  0  0  0
 24 27  1  0  0  0
 25 26  2  0  0  0
 25 51  1  0  0  0
 26 52  1  0  0  0
 27 28  2  0  0  0
 27 29  1  0  0  0
 29 30  1  0  0  0
 29 53  1  0  0  0
 30 39  1  0  0  0
 30 31  1  0  0  0
 30 36  1  0  0  0
 31 32  1  0  0  0
 31 54  1  0  0  0
 31 55  1  0  0  0
 32 33  1  0  0  0
 32 56  1  0  0  0
 32 57  1  0  0  0
 33 34  2  0  0  0
 33 35  1  0  0  0
 35 58  1  0  0  0
 36 37  2  0  0  0
 36 38  1  0  0  0
 38 59  1  0  0  0
M  END
> <s_m_entry_id>
41808

> <s_m_entry_name>
ligand_docking-pose.168

> <s_m_Source_Path>
/home/csk/Desktop/cluster/DUD-E-result/tysy

> <s_m_Source_File>
ligand_docking-pose.sdf

> <i_m_Source_File_Index>
168

> <i_lp_mmshare_version>
53161

> <i_f3d_flags>
0

> <r_lp_tautomer_probability>
1

> <s_lp_Force_Field>
OPLS_2005

> <r_lp_Energy>
18.773811

> <b_lp_Chiralities_Consistent>
1

> <s_lp_Variant>
152161-1

> <s_i_glide_gridfile>
glide-grid_1syn

> <i_i_glide_lignum>
759

> <i_i_glide_rotatable_bonds>
15

> <r_i_docking_score>
-7.90850107394991

> <r_i_glide_ligand_efficiency>
-0.208118449314471

> <r_i_glide_ligand_efficiency_sa>
-0.699689107447996

> <r_i_glide_ligand_efficiency_ln>
-1.70530547607476

> <r_i_glide_gscore>
-7.90850107394991

> <r_i_glide_lipo>
-3.92767667908631

> <r_i_glide_hbond>
-0.00766680604082474

> <r_i_glide_metal>
0

> <r_i_glide_rewards>
-0.663154704295837

> <r_i_glide_evdw>
-57.5650482177734

> <r_i_glide_ecoul>
-7.93561315536499

> <r_i_glide_erotb>
0.828177629200703

> <r_i_glide_esite>
-0.0695861295342151

> <r_i_glide_emodel>
-95.0936692729238

> <r_i_glide_energy>
-65.5006613731384

> <r_i_glide_einternal>
4.15457105636597

> <i_i_glide_confnum>
21

> <i_i_glide_posenum>
295

> <r_i_glide_eff_state_penalty>
0

> <s_user_duplicate_titles>
152161

> <s_m_subgroup_title>
dock_pv

> <s_m_subgroupid>
dock_pv1

> <b_m_subgroup_collapsed>
0

$$$$
152119
                    3D
 Schrodinger Suite 2021-1.
 56 58  0  0  1  0            999 V2000
   19.2514   10.5661   35.5907 C   0  0  0  0  0  0
   18.9953   11.4496   34.7914 C   0  0  0  0  0  0
   18.6200   12.5447   33.8847 C   0  0  0  0  0  0
   17.7246   13.5572   34.4788 N   0  0  0  0  0  0
   17.9626   14.9327   34.0208 C   0  0  0  0  0  0
   16.9855   15.3498   32.9271 C   0  0  0  0  0  0
   17.0515   14.7842   31.6518 C   0  0  0  0  0  0
   16.1912   15.2049   30.6371 C   0  0  0  0  0  0
   15.2425   16.2265   30.8862 C   0  0  0  0  0  0
   15.1660   16.8039   32.1910 C   0  0  0  0  0  0
   16.0510   16.3458   33.1973 C   0  0  0  0  0  0
   14.2109   17.8348   32.4059 C   0  0  0  0  0  0
   13.4046   18.2447   31.3486 C   0  0  0  0  0  0
   13.5588   17.6481   30.1023 C   0  0  0  0  0  0
   14.4439   16.6476   29.8648 N   0  0  0  0  0  0
   12.5970   18.2257   28.7939 Cl  0  0  0  0  0  0
   14.0569   18.6098   33.9420 Cl  0  0  0  0  0  0
   16.5914   13.2442   35.2934 C   0  0  0  0  0  0
   15.9291   14.2249   36.0468 C   0  0  0  0  0  0
   14.8813   13.8943   36.9089 C   0  0  0  0  0  0
   14.4549   12.5645   37.0453 C   0  0  0  0  0  0
   15.0621   11.5879   36.2511 C   0  0  0  0  0  0
   16.0939   11.9356   35.3934 C   0  0  0  0  0  0
   14.6721   10.2915   36.2921 F   0  0  0  0  0  0
   13.3975   12.1720   38.0434 C   0  0  0  0  0  0
   13.4448   11.0860   38.6210 O   0  0  0  0  0  0
   12.4513   13.0878   38.2931 N   0  0  0  0  0  0
   11.3639   12.9407   39.2703 C   0  0  1  0  0  0
   11.8058   13.5349   40.6499 C   0  0  0  0  0  0
   13.1033   12.8948   41.2173 C   0  0  0  0  0  0
   13.4555   13.2643   42.6556 C   0  0  0  0  0  0
   12.9920   14.2278   43.2604 O   0  0  0  0  0  0
   14.3458   12.3802   43.1910 O   0  0  0  0  0  0
   10.0580   13.5080   38.6625 C   0  0  0  0  0  0
    9.8793   13.6822   37.4771 O   0  0  0  0  0  0
    9.1455   13.8281   39.6223 O   0  0  0  0  0  0
   11.1563   11.8789   39.4088 H   0  0  0  0  0  0
   19.4385    9.8281   36.3297 H   0  0  0  0  0  0
   18.1886   12.1014   32.9888 H   0  0  0  0  0  0
   19.5635   13.0009   33.5838 H   0  0  0  0  0  0
   18.9660   15.0318   33.6029 H   0  0  0  0  0  0
   17.9527   15.6348   34.8535 H   0  0  0  0  0  0
   17.7811   14.0160   31.4391 H   0  0  0  0  0  0
   16.2547   14.7661   29.6504 H   0  0  0  0  0  0
   16.0046   16.7861   34.1802 H   0  0  0  0  0  0
   12.6887   19.0432   31.4883 H   0  0  0  0  0  0
   16.2439   15.2540   36.0239 H   0  0  0  0  0  0
   14.4464   14.6870   37.5005 H   0  0  0  0  0  0
   16.4915   11.1403   34.7910 H   0  0  0  0  0  0
   12.3971   13.9006   37.7012 H   0  0  0  0  0  0
   11.9603   14.6123   40.5562 H   0  0  0  0  0  0
   11.0028   13.4090   41.3767 H   0  0  0  0  0  0
   13.0115   11.8098   41.1707 H   0  0  0  0  0  0
   13.9655   13.1567   40.6025 H   0  0  0  0  0  0
   14.5883   12.5312   44.1142 H   0  0  0  0  0  0
    8.4170   14.2921   39.1914 H   0  0  0  0  0  0
  1  2  3  0  0  0
  1 38  1  0  0  0
  2  3  1  0  0  0
  3  4  1  0  0  0
  3 39  1  0  0  0
  3 40  1  0  0  0
  4  5  1  0  0  0
  4 18  1  0  0  0
  5  6  1  0  0  0
  5 41  1  0  0  0
  5 42  1  0  0  0
  6 11  1  0  0  0
  6  7  2  0  0  0
  7  8  1  0  0  0
  7 43  1  0  0  0
  8  9  2  0  0  0
  8 44  1  0  0  0
  9 15  1  0  0  0
  9 10  1  0  0  0
 10 11  2  0  0  0
 10 12  1  0  0  0
 11 45  1  0  0  0
 12 13  2  0  0  0
 12 17  1  0  0  0
 13 14  1  0  0  0
 13 46  1  0  0  0
 14 15  2  0  0  0
 14 16  1  0  0  0
 18 23  1  0  0  0
 18 19  2  0  0  0
 19 20  1  0  0  0
 19 47  1  0  0  0
 20 21  2  0  0  0
 20 48  1  0  0  0
 21 22  1  0  0  0
 21 25  1  0  0  0
 22 23  2  0  0  0
 22 24  1  0  0  0
 23 49  1  0  0  0
 25 26  2  0  0  0
 25 27  1  0  0  0
 27 28  1  0  0  0
 27 50  1  0  0  0
 28 37  1  0  0  0
 28 29  1  0  0  0
 28 34  1  0  0  0
 29 30  1  0  0  0
 29 51  1  0  0  0
 29 52  1  0  0  0
 30 31  1  0  0  0
 30 53  1  0  0  0
 30 54  1  0  0  0
 31 32  2  0  0  0
 31 33  1  0  0  0
 33 55  1  0  0  0
 34 35  2  0  0  0
 34 36  1  0  0  0
 36 56  1  0  0  0
M  END
> <s_m_entry_id>
41809

> <s_m_entry_name>
ligand_docking-pose.169

> <s_m_Source_Path>
/home/csk/Desktop/cluster/DUD-E-result/tysy

> <s_m_Source_File>
ligand_docking-pose.sdf

> <i_m_Source_File_Index>
169

> <i_lp_mmshare_version>
53161

> <i_f3d_flags>
0

> <r_lp_tautomer_probability>
1

> <s_lp_Force_Field>
OPLS_2005

> <r_lp_Energy>
17.448632

> <b_lp_Chiralities_Consistent>
1

> <s_lp_Variant>
152119-1

> <s_i_glide_gridfile>
glide-grid_1syn

> <i_i_glide_lignum>
761

> <i_i_glide_rotatable_bonds>
14

> <r_i_docking_score>
-7.90803218434043

> <r_i_glide_ligand_efficiency>
-0.219667560676123

> <r_i_glide_ligand_efficiency_sa>
-0.725326303428298

> <r_i_glide_ligand_efficiency_ln>
-1.7253189722838

> <r_i_glide_gscore>
-7.90803218434043

> <r_i_glide_lipo>
-3.965381429512

> <r_i_glide_hbond>
0

> <r_i_glide_metal>
0

> <r_i_glide_rewards>
-0.584261189461689

> <r_i_glide_evdw>
-59.1451187133789

> <r_i_glide_ecoul>
-8.48955154418945

> <r_i_glide_erotb>
0.873366947181512

> <r_i_glide_esite>
-0.0010678452508863

> <r_i_glide_emodel>
-97.2962510457041

> <r_i_glide_energy>
-67.6346702575684

> <r_i_glide_einternal>
5.28010892868042

> <i_i_glide_confnum>
19

> <i_i_glide_posenum>
373

> <r_i_glide_eff_state_penalty>
0

> <s_user_duplicate_titles>
152119

> <s_m_subgroup_title>
dock_pv

> <s_m_subgroupid>
dock_pv1

> <b_m_subgroup_collapsed>
0

$$$$
207255
                    3D
 Schrodinger Suite 2021-1.
 63 66  0  0  1  0            999 V2000
   18.1668   14.2652   31.2747 C   0  0  0  0  0  0
   17.0164   15.0940   31.8258 C   0  0  0  0  0  0
   16.0692   15.5516   30.9012 C   0  0  0  0  0  0
   15.0651   16.4239   31.2989 C   0  0  0  0  0  0
   14.9678   16.8257   32.6316 C   0  0  0  0  0  0
   15.8816   16.3367   33.5707 C   0  0  0  0  0  0
   16.9165   15.4769   33.1841 C   0  0  0  0  0  0
   17.9319   15.0495   34.2549 C   0  0  0  0  0  0
   17.6880   13.6945   34.7842 N   0  0  0  0  0  0
   18.4195   12.6324   34.0755 C   0  0  0  0  0  0
   18.9189   11.5389   34.9233 C   0  0  0  0  0  0
   19.3727   10.6270   35.5909 C   0  0  0  0  0  0
   16.5132   13.4355   35.5569 C   0  0  0  0  0  0
   15.9276   14.4466   36.3286 C   0  0  0  0  0  0
   14.7695   14.2280   37.0703 C   0  0  0  0  0  0
   14.1298   12.9929   37.0398 C   0  0  0  0  0  0
   14.7158   11.9514   36.3094 C   0  0  0  0  0  0
   15.8913   12.1752   35.5911 C   0  0  0  0  0  0
   14.1557   10.7187   36.2779 F   0  0  0  0  0  0
   12.8598   12.8056   37.8195 C   0  0  0  0  0  0
   12.8034   13.0770   39.0182 O   0  0  0  0  0  0
   11.8284   12.3709   37.0795 N   0  0  0  0  0  0
   10.4499   12.0662   37.4877 C   0  0  2  0  0  0
    9.5923   11.6911   36.2492 C   0  0  0  0  0  0
   10.3062   10.2756   35.3338 S   0  0  0  0  0  0
    9.7450   10.6234   33.6992 C   0  0  0  0  0  0
    9.2432    9.7204   32.7736 C   0  0  0  0  0  0
    8.9955   10.4674   31.6529 N   0  0  0  0  0  0
    9.3190   11.7468   31.8480 N   0  0  0  0  0  0
    9.7919   11.8275   33.1466 N   0  0  0  0  0  0
    9.7818   13.1672   38.3520 C   0  0  0  0  0  0
    9.6318   13.0780   39.5539 O   0  0  0  0  0  0
    9.3898   14.2283   37.5911 O   0  0  0  0  0  0
   13.8842   17.8107   33.0426 C   0  0  0  0  0  0
   13.0661   18.2696   32.0035 N   0  0  0  0  0  0
   13.2092   17.8740   30.7985 C   0  0  0  0  0  0
   14.1569   16.9586   30.3792 N   0  0  0  0  0  0
   12.2616   18.4121   29.7513 C   0  0  0  0  0  0
   13.7905   18.1373   34.2231 O   0  0  0  0  0  0
    8.6482   10.1190   30.7695 H   0  0  0  0  0  0
   19.0839   14.3562   31.8505 H   0  0  0  0  0  0
   17.8892   13.2160   31.1795 H   0  0  0  0  0  0
   18.4335   14.6292   30.2854 H   0  0  0  0  0  0
   16.1484   15.2628   29.8626 H   0  0  0  0  0  0
   15.7917   16.6503   34.6007 H   0  0  0  0  0  0
   18.9348   15.1210   33.8347 H   0  0  0  0  0  0
   17.9692   15.7714   35.0675 H   0  0  0  0  0  0
   17.7922   12.2278   33.2867 H   0  0  0  0  0  0
   19.3183   13.0201   33.5929 H   0  0  0  0  0  0
   19.7863    9.8305   36.1622 H   0  0  0  0  0  0
   16.3728   15.4263   36.3911 H   0  0  0  0  0  0
   14.3625   15.0285   37.6659 H   0  0  0  0  0  0
   16.2822   11.3513   35.0189 H   0  0  0  0  0  0
   12.0169   12.1848   36.1074 H   0  0  0  0  0  0
   10.5025   11.1786   38.1197 H   0  0  0  0  0  0
    8.5750   11.4278   36.5423 H   0  0  0  0  0  0
    9.5108   12.5568   35.5908 H   0  0  0  0  0  0
    9.0777    8.6519   32.7963 H   0  0  0  0  0  0
    8.9340   14.8994   38.1118 H   0  0  0  0  0  0
   11.7924   19.3445   30.0699 H   0  0  0  0  0  0
   12.7776   18.6185   28.8145 H   0  0  0  0  0  0
   11.4622   17.7001   29.5538 H   0  0  0  0  0  0
   14.2100   16.6896   29.4120 H   0  0  0  0  0  0
  1 41  1  0  0  0
  1 42  1  0  0  0
  1 43  1  0  0  0
  1  2  1  0  0  0
  2  7  1  0  0  0
  2  3  2  0  0  0
  3 44  1  0  0  0
  3  4  1  0  0  0
  4  5  2  0  0  0
  4 37  1  0  0  0
  5 34  1  0  0  0
  5  6  1  0  0  0
  6 45  1  0  0  0
  6  7  2  0  0  0
  7  8  1  0  0  0
  8  9  1  0  0  0
  8 46  1  0  0  0
  8 47  1  0  0  0
  9 10  1  0  0  0
  9 13  1  0  0  0
 10 11  1  0  0  0
 10 48  1  0  0  0
 10 49  1  0  0  0
 11 12  3  0  0  0
 12 50  1  0  0  0
 13 18  1  0  0  0
 13 14  2  0  0  0
 14 15  1  0  0  0
 14 51  1  0  0  0
 15 16  2  0  0  0
 15 52  1  0  0  0
 16 17  1  0  0  0
 16 20  1  0  0  0
 17 18  2  0  0  0
 17 19  1  0  0  0
 18 53  1  0  0  0
 20 21  2  0  0  0
 20 22  1  0  0  0
 22 23  1  0  0  0
 22 54  1  0  0  0
 23 24  1  0  0  0
 23 31  1  0  0  0
 23 55  1  0  0  0
 24 25  1  0  0  0
 24 56  1  0  0  0
 24 57  1  0  0  0
 25 26  1  0  0  0
 26 30  1  0  0  0
 26 27  2  0  0  0
 27 28  1  0  0  0
 27 58  1  0  0  0
 28 40  1  0  0  0
 28 29  1  0  0  0
 29 30  2  0  0  0
 31 32  2  0  0  0
 31 33  1  0  0  0
 33 59  1  0  0  0
 34 39  2  0  0  0
 34 35  1  0  0  0
 35 36  2  0  0  0
 36 37  1  0  0  0
 36 38  1  0  0  0
 37 63  1  0  0  0
 38 60  1  0  0  0
 38 61  1  0  0  0
 38 62  1  0  0  0
M  END
> <s_m_entry_id>
41813

> <s_m_entry_name>
ligand_docking-pose.173

> <s_m_Source_Path>
/home/csk/Desktop/cluster/DUD-E-result/tysy

> <s_m_Source_File>
ligand_docking-pose.sdf

> <i_m_Source_File_Index>
173

> <i_lp_mmshare_version>
53161

> <i_f3d_flags>
0

> <r_lp_tautomer_probability>
0.0266395452444345

> <s_lp_Force_Field>
OPLS_2005

> <r_lp_Energy>
20.465807

> <b_lp_Chiralities_Consistent>
1

> <s_lp_Variant>
207255-7

> <s_i_glide_gridfile>
glide-grid_1syn

> <i_i_glide_lignum>
233

> <i_i_glide_rotatable_bonds>
13

> <r_i_docking_score>
-7.89079422015275

> <r_i_glide_ligand_efficiency>
-0.202328056926994

> <r_i_glide_ligand_efficiency_sa>
-0.686137221055741

> <r_i_glide_ligand_efficiency_ln>
-1.692010274315

> <r_i_glide_gscore>
-7.89079422015275

> <r_i_glide_lipo>
-3.5698449591478

> <r_i_glide_hbond>
0

> <r_i_glide_metal>
0

> <r_i_glide_rewards>
-0.820450270496851

> <r_i_glide_evdw>
-63.569580078125

> <r_i_glide_ecoul>
-7.17957305908203

> <r_i_glide_erotb>
0.754915972260451

> <r_i_glide_esite>
0

> <r_i_glide_emodel>
-99.4004090798585

> <r_i_glide_energy>
-70.749153137207

> <r_i_glide_einternal>
10.7560949325562

> <i_i_glide_confnum>
25

> <i_i_glide_posenum>
289

> <r_i_glide_eff_state_penalty>
0

> <s_user_duplicate_titles>
207255

> <s_m_subgroup_title>
dock_pv

> <s_m_subgroupid>
dock_pv1

> <b_m_subgroup_collapsed>
0

$$$$
455
                    3D
 Schrodinger Suite 2021-1.
 50 52  0  0  1  0            999 V2000
   14.1544   17.5201   29.1285 C   0  0  0  0  0  0
   14.4577   17.0771   30.5406 C   0  0  0  0  0  0
   15.4170   16.2614   30.7819 N   0  0  0  0  0  0
   15.6965   15.8940   32.1100 C   0  0  0  0  0  0
   16.7580   15.0281   32.3573 C   0  0  0  0  0  0
   16.9994   14.5767   33.6582 C   0  0  0  0  0  0
   16.1702   14.9701   34.7177 C   0  0  0  0  0  0
   15.1535   15.9050   34.4802 C   0  0  0  0  0  0
   14.9204   16.3535   33.1782 C   0  0  0  0  0  0
   13.8042   17.3237   32.8733 C   0  0  0  0  0  0
   13.7034   17.6011   31.5518 N   0  0  0  0  0  0
   13.0437   17.8274   33.6914 O   0  0  0  0  0  0
   16.3782   14.3723   36.1097 C   0  0  0  0  0  0
   15.1926   13.6290   36.5871 N   0  0  0  0  0  0
   14.1318   14.4082   37.2382 C   0  0  0  0  0  0
   13.7548   13.9702   38.6011 C   0  0  0  0  0  0
   13.3918   13.5930   39.7050 C   0  0  0  0  0  0
   15.0214   12.2346   36.3644 C   0  0  0  0  0  0
   16.1030   11.4107   36.0321 C   0  0  0  0  0  0
   15.9471   10.0328   35.9702 C   0  0  0  0  0  0
   14.7061    9.4431   36.2363 C   0  0  0  0  0  0
   13.6010   10.2568   36.4785 C   0  0  0  0  0  0
   13.7603   11.6334   36.5248 C   0  0  0  0  0  0
   14.5906    7.9471   36.2349 C   0  0  0  0  0  0
   15.3924    7.2893   35.5910 O   0  0  0  0  0  0
   13.6392    7.3768   36.9997 N   0  0  0  0  0  0
   13.4605    5.9195   37.1618 C   0  0  0  0  0  0
   14.5769    5.3158   38.0470 C   0  0  0  0  0  0
   15.0455    5.8709   39.0209 O   0  0  0  0  0  0
   14.9490    4.0832   37.5910 O   0  0  0  0  0  0
   14.5940   16.8426   28.3956 H   0  0  0  0  0  0
   13.0806   17.5473   28.9428 H   0  0  0  0  0  0
   14.5555   18.5167   28.9450 H   0  0  0  0  0  0
   17.3710   14.6815   31.5386 H   0  0  0  0  0  0
   17.8052   13.8759   33.8267 H   0  0  0  0  0  0
   14.5295   16.2558   35.2894 H   0  0  0  0  0  0
   12.9775   18.2629   31.3295 H   0  0  0  0  0  0
   16.5930   15.1928   36.7908 H   0  0  0  0  0  0
   17.2874   13.7764   36.1309 H   0  0  0  0  0  0
   14.4655   15.4280   37.3387 H   0  0  0  0  0  0
   13.2369   14.4264   36.6148 H   0  0  0  0  0  0
   13.0849   13.2488   40.6658 H   0  0  0  0  0  0
   17.0933   11.7984   35.8654 H   0  0  0  0  0  0
   16.8129    9.4283   35.7395 H   0  0  0  0  0  0
   12.6168    9.8412   36.6377 H   0  0  0  0  0  0
   12.8783   12.2200   36.7226 H   0  0  0  0  0  0
   12.9875    7.9770   37.4812 H   0  0  0  0  0  0
   13.4138    5.4307   36.1863 H   0  0  0  0  0  0
   12.5061    5.7272   37.6520 H   0  0  0  0  0  0
   14.5123    3.8285   36.7621 H   0  0  0  0  0  0
  1 31  1  0  0  0
  1 32  1  0  0  0
  1 33  1  0  0  0
  1  2  1  0  0  0
  2  3  2  0  0  0
  2 11  1  0  0  0
  3  4  1  0  0  0
  4  9  2  0  0  0
  4  5  1  0  0  0
  5  6  2  0  0  0
  5 34  1  0  0  0
  6  7  1  0  0  0
  6 35  1  0  0  0
  7  8  2  0  0  0
  7 13  1  0  0  0
  8  9  1  0  0  0
  8 36  1  0  0  0
  9 10  1  0  0  0
 10 12  2  0  0  0
 10 11  1  0  0  0
 11 37  1  0  0  0
 13 14  1  0  0  0
 13 38  1  0  0  0
 13 39  1  0  0  0
 14 15  1  0  0  0
 14 18  1  0  0  0
 15 16  1  0  0  0
 15 40  1  0  0  0
 15 41  1  0  0  0
 16 17  3  0  0  0
 17 42  1  0  0  0
 18 23  1  0  0  0
 18 19  2  0  0  0
 19 20  1  0  0  0
 19 43  1  0  0  0
 20 21  2  0  0  0
 20 44  1  0  0  0
 21 22  1  0  0  0
 21 24  1  0  0  0
 22 23  2  0  0  0
 22 45  1  0  0  0
 23 46  1  0  0  0
 24 25  2  0  0  0
 24 26  1  0  0  0
 26 27  1  0  0  0
 26 47  1  0  0  0
 27 28  1  0  0  0
 27 48  1  0  0  0
 27 49  1  0  0  0
 28 29  2  0  0  0
 28 30  1  0  0  0
 30 50  1  0  0  0
M  END
> <s_m_entry_id>
41814

> <s_m_entry_name>
ligand_docking-pose.174

> <s_m_Source_Path>
/home/csk/Desktop/cluster/DUD-E-result/tysy

> <s_m_Source_File>
ligand_docking-pose.sdf

> <i_m_Source_File_Index>
174

> <i_lp_mmshare_version>
53161

> <i_f3d_flags>
0

> <r_lp_tautomer_probability>
0.883938

> <s_lp_Force_Field>
OPLS_2005

> <r_lp_Energy>
25.052509

> <b_lp_Chiralities_Consistent>
1

> <s_lp_Variant>
455-1

> <s_i_glide_gridfile>
glide-grid_1syn

> <i_i_glide_lignum>
558

> <i_i_glide_rotatable_bonds>
10

> <r_i_docking_score>
-7.88546513078878

> <r_i_glide_ligand_efficiency>
-0.262848837692959

> <r_i_glide_ligand_efficiency_sa>
-0.816732451705797

> <r_i_glide_ligand_efficiency_ln>
-1.79166359673938

> <r_i_glide_gscore>
-7.88546513078878

> <r_i_glide_lipo>
-3.45031514703027

> <r_i_glide_hbond>
0

> <r_i_glide_metal>
0

> <r_i_glide_rewards>
-1.60648653023213

> <r_i_glide_evdw>
-44.4880409240723

> <r_i_glide_ecoul>
-11.0823163986206

> <r_i_glide_erotb>
1.08090214814885

> <r_i_glide_esite>
-0.0228160956785224

> <r_i_glide_emodel>
-83.1081969891793

> <r_i_glide_energy>
-55.5703573226929

> <r_i_glide_einternal>
3.3493447303772

> <i_i_glide_confnum>
30

> <i_i_glide_posenum>
34

> <r_i_glide_eff_state_penalty>
0

> <s_user_duplicate_titles>
455

> <s_m_subgroup_title>
dock_pv

> <s_m_subgroupid>
dock_pv1

> <b_m_subgroup_collapsed>
0

$$$$
268450
                    3D
 Schrodinger Suite 2021-1.
 58 60  0  0  1  0            999 V2000
   19.1633   10.6285   35.5172 C   0  0  0  0  0  0
   18.8582   11.5606   34.7911 C   0  0  0  0  0  0
   18.4111   12.6632   33.9107 C   0  0  0  0  0  0
   17.4408   13.6196   34.4927 N   0  0  0  0  0  0
   17.6002   15.0297   34.0769 C   0  0  0  0  0  0
   16.3774   15.6700   33.3995 C   0  0  0  0  0  0
   15.4961   16.4803   34.1320 C   0  0  0  0  0  0
   14.4722   17.1842   33.5172 C   0  0  0  0  0  0
   14.3137   17.0767   32.1488 C   0  0  0  0  0  0
   15.1541   16.2620   31.3829 C   0  0  0  0  0  0
   16.1923   15.5526   32.0130 C   0  0  0  0  0  0
   14.9393   16.1942   29.8753 C   0  0  0  0  0  0
   13.8430   16.9259   29.3873 N   0  0  0  0  0  0
   13.1120   17.6539   30.1512 C   0  0  0  0  0  0
   13.3040   17.7838   31.5095 N   0  0  0  0  0  0
   11.9079   18.4137   29.5964 C   0  0  0  0  0  0
   12.1920   19.4493   28.6100 N   0  0  0  0  0  0
   15.7170   15.5377   29.1867 O   0  0  0  0  0  0
   16.4331   13.2419   35.4309 C   0  0  0  0  0  0
   15.9064   11.9402   35.4880 C   0  0  0  0  0  0
   14.9124   11.5919   36.3964 C   0  0  0  0  0  0
   14.3921   12.5568   37.2580 C   0  0  0  0  0  0
   14.8967   13.8600   37.2008 C   0  0  0  0  0  0
   15.9254   14.1791   36.3303 C   0  0  0  0  0  0
   13.3659   12.1790   38.2899 C   0  0  0  0  0  0
   13.4028   11.0884   38.8583 O   0  0  0  0  0  0
   12.4669   13.1377   38.5704 N   0  0  0  0  0  0
   11.4932   13.1107   39.6709 C   0  0  2  0  0  0
   10.1486   13.7550   39.1804 C   0  0  0  0  0  0
    8.9801   12.7866   38.9687 C   0  0  0  0  0  0
    9.0301   11.5790   39.1916 O   0  0  0  0  0  0
    7.8599   13.4283   38.5242 O   0  0  0  0  0  0
   12.0430   13.7575   40.9750 C   0  0  0  0  0  0
   11.3911   13.8301   41.9909 O   0  0  0  0  0  0
   13.3251   14.2140   40.8441 O   0  0  0  0  0  0
   19.3992    9.8280   36.1732 H   0  0  0  0  0  0
   17.9928   12.2281   33.0052 H   0  0  0  0  0  0
   19.3273   13.1707   33.6040 H   0  0  0  0  0  0
   18.4282   15.1182   33.3722 H   0  0  0  0  0  0
   17.9186   15.6265   34.9316 H   0  0  0  0  0  0
   15.5978   16.6224   35.1905 H   0  0  0  0  0  0
   13.8179   17.8158   34.1002 H   0  0  0  0  0  0
   16.8705   14.9374   31.4354 H   0  0  0  0  0  0
   11.1860   17.7055   29.1912 H   0  0  0  0  0  0
   11.3924   18.9060   30.4194 H   0  0  0  0  0  0
   11.2929   19.7996   28.2670 H   0  0  0  0  0  0
   12.6488   20.2297   29.0596 H   0  0  0  0  0  0
   12.7069   18.3891   32.0492 H   0  0  0  0  0  0
   16.2383   11.1873   34.7921 H   0  0  0  0  0  0
   14.5457   10.5752   36.4135 H   0  0  0  0  0  0
   14.5633   14.6301   37.8812 H   0  0  0  0  0  0
   16.3590   15.1600   36.3982 H   0  0  0  0  0  0
   12.4405   13.9465   37.9679 H   0  0  0  0  0  0
   11.3346   12.0663   39.9492 H   0  0  0  0  0  0
    9.7929   14.5334   39.8593 H   0  0  0  0  0  0
   10.2873   14.2334   38.2112 H   0  0  0  0  0  0
    7.9576   14.3807   38.4048 H   0  0  0  0  0  0
   13.6626   13.9961   39.9722 H   0  0  0  0  0  0
  1  2  3  0  0  0
  1 36  1  0  0  0
  2  3  1  0  0  0
  3  4  1  0  0  0
  3 37  1  0  0  0
  3 38  1  0  0  0
  4  5  1  0  0  0
  4 19  1  0  0  0
  5 39  1  0  0  0
  5 40  1  0  0  0
  5  6  1  0  0  0
  6 11  2  0  0  0
  6  7  1  0  0  0
  7 41  1  0  0  0
  7  8  2  0  0  0
  8 42  1  0  0  0
  8  9  1  0  0  0
  9 10  2  0  0  0
  9 15  1  0  0  0
 10 12  1  0  0  0
 10 11  1  0  0  0
 11 43  1  0  0  0
 12 18  2  0  0  0
 12 13  1  0  0  0
 13 14  2  0  0  0
 14 15  1  0  0  0
 14 16  1  0  0  0
 15 48  1  0  0  0
 16 17  1  0  0  0
 16 44  1  0  0  0
 16 45  1  0  0  0
 17 46  1  0  0  0
 17 47  1  0  0  0
 19 24  1  0  0  0
 19 20  2  0  0  0
 20 21  1  0  0  0
 20 49  1  0  0  0
 21 22  2  0  0  0
 21 50  1  0  0  0
 22 23  1  0  0  0
 22 25  1  0  0  0
 23 24  2  0  0  0
 23 51  1  0  0  0
 24 52  1  0  0  0
 25 26  2  0  0  0
 25 27  1  0  0  0
 27 28  1  0  0  0
 27 53  1  0  0  0
 28 29  1  0  0  0
 28 33  1  0  0  0
 28 54  1  0  0  0
 29 30  1  0  0  0
 29 55  1  0  0  0
 29 56  1  0  0  0
 30 31  2  0  0  0
 30 32  1  0  0  0
 32 57  1  0  0  0
 33 34  2  0  0  0
 33 35  1  0  0  0
 35 58  1  0  0  0
M  END
> <s_m_entry_id>
41817

> <s_m_entry_name>
ligand_docking-pose.177

> <s_m_Source_Path>
/home/csk/Desktop/cluster/DUD-E-result/tysy

> <s_m_Source_File>
ligand_docking-pose.sdf

> <i_m_Source_File_Index>
177

> <i_lp_mmshare_version>
53161

> <i_f3d_flags>
0

> <r_lp_tautomer_probability>
0.116051

> <s_lp_Force_Field>
OPLS_2005

> <r_lp_Energy>
15.495308

> <b_lp_Chiralities_Consistent>
1

> <s_lp_Variant>
268450-3

> <s_i_glide_gridfile>
glide-grid_1syn

> <i_i_glide_lignum>
780

> <i_i_glide_rotatable_bonds>
14

> <r_i_docking_score>
-7.86972541129247

> <r_i_glide_ligand_efficiency>
-0.224849297465499

> <r_i_glide_ligand_efficiency_sa>
-0.735496960937318

> <r_i_glide_ligand_efficiency_ln>
-1.72757938692381

> <r_i_glide_gscore>
-7.86972541129247

> <r_i_glide_lipo>
-3.29630979342003

> <r_i_glide_hbond>
-0.304

> <r_i_glide_metal>
0

> <r_i_glide_rewards>
-0.671853788167803

> <r_i_glide_evdw>
-55.4685592651367

> <r_i_glide_ecoul>
-11.6575231552124

> <r_i_glide_erotb>
0.977427114904498

> <r_i_glide_esite>
-0.0529325080704319

> <r_i_glide_emodel>
-98.2626676463815

> <r_i_glide_energy>
-67.1260824203491

> <r_i_glide_einternal>
7.27293968200684

> <i_i_glide_confnum>
70

> <i_i_glide_posenum>
354

> <r_i_glide_eff_state_penalty>
0

> <s_user_duplicate_titles>
268450

> <s_m_subgroup_title>
dock_pv

> <s_m_subgroupid>
dock_pv1

> <b_m_subgroup_collapsed>
0

$$$$
151970
                    3D
 Schrodinger Suite 2021-1.
 59 61  0  0  1  0            999 V2000
   13.9164   17.7346   29.0615 C   0  0  0  0  0  0
   14.5915   17.0158   30.2152 C   0  0  0  0  0  0
   15.5841   16.0619   29.9957 C   0  0  0  0  0  0
   16.1699   15.4276   31.0906 C   0  0  0  0  0  0
   15.7156   15.7405   32.4028 C   0  0  0  0  0  0
   16.1918   15.0880   33.5737 C   0  0  0  0  0  0
   15.5982   15.3242   34.8168 C   0  0  0  0  0  0
   14.6237   16.3213   34.9233 C   0  0  0  0  0  0
   14.1783   17.0285   33.8110 C   0  0  0  0  0  0
   14.6880   16.7250   32.5299 C   0  0  0  0  0  0
   14.1563   17.3638   31.4509 N   0  0  0  0  0  0
   16.0435   14.4956   36.0327 C   0  0  0  0  0  0
   14.9486   13.7193   36.6541 N   0  0  0  0  0  0
   13.9741   14.4420   37.4909 C   0  0  0  0  0  0
   13.6752   13.8668   38.8232 C   0  0  0  0  0  0
   13.3897   13.3912   39.9116 C   0  0  0  0  0  0
   14.7700   12.3300   36.4132 C   0  0  0  0  0  0
   13.5057   11.7567   36.6116 C   0  0  0  0  0  0
   13.3286   10.3893   36.6065 C   0  0  0  0  0  0
   14.4041    9.5536   36.3222 C   0  0  0  0  0  0
   15.6468   10.1056   35.9941 C   0  0  0  0  0  0
   15.8312   11.4856   36.0535 C   0  0  0  0  0  0
   14.2000    8.0738   36.3138 C   0  0  0  0  0  0
   14.5910    7.4280   35.3515 O   0  0  0  0  0  0
   13.5440    7.5818   37.3857 N   0  0  0  0  0  0
   13.0823    6.2076   37.6669 C   0  0  1  0  0  0
   12.0607    5.7263   36.5869 C   0  0  0  0  0  0
   10.5940    6.1601   36.8283 C   0  0  0  0  0  0
   10.3973    7.6557   37.0855 C   0  0  0  0  0  0
   10.0601    8.1178   38.1722 O   0  0  0  0  0  0
   10.6732    8.4199   35.9913 O   0  0  0  0  0  0
   14.2067    5.1896   37.9805 C   0  0  0  0  0  0
   15.3919    5.4279   37.9209 O   0  0  0  0  0  0
   13.6646    4.0051   38.3917 O   0  0  0  0  0  0
   17.5249   14.1221   30.7911 Br  0  0  0  0  0  0
   12.5500    6.2851   38.6161 H   0  0  0  0  0  0
   12.8310   17.6742   29.1535 H   0  0  0  0  0  0
   14.1948   18.7886   29.0542 H   0  0  0  0  0  0
   14.1890   17.3019   28.0983 H   0  0  0  0  0  0
   15.9026   15.8129   28.9936 H   0  0  0  0  0  0
   16.9603   14.3342   33.4800 H   0  0  0  0  0  0
   14.1935   16.5652   35.8775 H   0  0  0  0  0  0
   13.4118   17.7847   33.9152 H   0  0  0  0  0  0
   16.8735   13.8647   35.7262 H   0  0  0  0  0  0
   16.4814   15.1546   36.7800 H   0  0  0  0  0  0
   14.3428   15.4280   37.7110 H   0  0  0  0  0  0
   13.0339   14.5510   36.9494 H   0  0  0  0  0  0
   13.1531   12.9592   40.8568 H   0  0  0  0  0  0
   12.6381   12.3590   36.8277 H   0  0  0  0  0  0
   12.3466   10.0012   36.8257 H   0  0  0  0  0  0
   16.4828    9.4714   35.7340 H   0  0  0  0  0  0
   16.8252   11.8598   35.8749 H   0  0  0  0  0  0
   13.3171    8.2481   38.1073 H   0  0  0  0  0  0
   12.3757    6.0355   35.5913 H   0  0  0  0  0  0
   12.0467    4.6373   36.5194 H   0  0  0  0  0  0
    9.9678    5.8527   35.9915 H   0  0  0  0  0  0
   10.2053    5.6278   37.6975 H   0  0  0  0  0  0
   10.9920    7.9127   35.2333 H   0  0  0  0  0  0
   12.7087    3.9902   38.3178 H   0  0  0  0  0  0
  1  2  1  0  0  0
  1 37  1  0  0  0
  1 38  1  0  0  0
  1 39  1  0  0  0
  2 11  1  0  0  0
  2  3  2  0  0  0
  3  4  1  0  0  0
  3 40  1  0  0  0
  4  5  2  0  0  0
  4 35  1  0  0  0
  5 10  1  0  0  0
  5  6  1  0  0  0
  6  7  2  0  0  0
  6 41  1  0  0  0
  7  8  1  0  0  0
  7 12  1  0  0  0
  8  9  2  0  0  0
  8 42  1  0  0  0
  9 10  1  0  0  0
  9 43  1  0  0  0
 10 11  2  0  0  0
 12 13  1  0  0  0
 12 44  1  0  0  0
 12 45  1  0  0  0
 13 14  1  0  0  0
 13 17  1  0  0  0
 14 15  1  0  0  0
 14 46  1  0  0  0
 14 47  1  0  0  0
 15 16  3  0  0  0
 16 48  1  0  0  0
 17 22  1  0  0  0
 17 18  2  0  0  0
 18 19  1  0  0  0
 18 49  1  0  0  0
 19 20  2  0  0  0
 19 50  1  0  0  0
 20 21  1  0  0  0
 20 23  1  0  0  0
 21 22  2  0  0  0
 21 51  1  0  0  0
 22 52  1  0  0  0
 23 24  2  0  0  0
 23 25  1  0  0  0
 25 26  1  0  0  0
 25 53  1  0  0  0
 26 36  1  0  0  0
 26 27  1  0  0  0
 26 32  1  0  0  0
 27 28  1  0  0  0
 27 54  1  0  0  0
 27 55  1  0  0  0
 28 29  1  0  0  0
 28 56  1  0  0  0
 28 57  1  0  0  0
 29 30  2  0  0  0
 29 31  1  0  0  0
 31 58  1  0  0  0
 32 33  2  0  0  0
 32 34  1  0  0  0
 34 59  1  0  0  0
M  END
> <s_m_entry_id>
41819

> <s_m_entry_name>
ligand_docking-pose.179

> <s_m_Source_Path>
/home/csk/Desktop/cluster/DUD-E-result/tysy

> <s_m_Source_File>
ligand_docking-pose.sdf

> <i_m_Source_File_Index>
179

> <i_lp_mmshare_version>
53161

> <i_f3d_flags>
0

> <r_lp_tautomer_probability>
1

> <s_lp_Force_Field>
OPLS_2005

> <r_lp_Energy>
15.056017

> <b_lp_Chiralities_Consistent>
1

> <s_lp_Variant>
151970-1

> <s_i_glide_gridfile>
glide-grid_1syn

> <i_i_glide_lignum>
420

> <i_i_glide_rotatable_bonds>
14

> <r_i_docking_score>
-7.85264516275812

> <r_i_glide_ligand_efficiency>
-0.224361290364518

> <r_i_glide_ligand_efficiency_sa>
-0.733900657352057

> <r_i_glide_ligand_efficiency_ln>
-1.72382989329483

> <r_i_glide_gscore>
-7.85264516275812

> <r_i_glide_lipo>
-4.28763409241687

> <r_i_glide_hbond>
-0.17663372135037

> <r_i_glide_metal>
0

> <r_i_glide_rewards>
-0.693222491115451

> <r_i_glide_evdw>
-45.5017623901367

> <r_i_glide_ecoul>
-8.28929615020752

> <r_i_glide_erotb>
0.855390609801514

> <r_i_glide_esite>
-0.0320629256389868

> <r_i_glide_emodel>
-73.6891306310729

> <r_i_glide_energy>
-53.7910585403442

> <r_i_glide_einternal>
10.7367258071899

> <i_i_glide_confnum>
57

> <i_i_glide_posenum>
91

> <r_i_glide_eff_state_penalty>
0

> <s_user_duplicate_titles>
151970

> <s_m_subgroup_title>
dock_pv

> <s_m_subgroupid>
dock_pv1

> <b_m_subgroup_collapsed>
0

$$$$
207211
                    3D
 Schrodinger Suite 2021-1.
 65 67  0  0  1  0            999 V2000
   17.8965   14.1010   30.9606 C   0  0  0  0  0  0
   16.8395   15.0279   31.5284 C   0  0  0  0  0  0
   15.8930   15.5298   30.6270 C   0  0  0  0  0  0
   14.9619   16.4688   31.0450 C   0  0  0  0  0  0
   14.9376   16.8936   32.3747 C   0  0  0  0  0  0
   15.8726   16.3875   33.2834 C   0  0  0  0  0  0
   16.8305   15.4500   32.8757 C   0  0  0  0  0  0
   17.8874   14.9979   33.8936 C   0  0  0  0  0  0
   17.6620   13.6362   34.4199 N   0  0  0  0  0  0
   18.5845   12.5982   33.9034 C   0  0  0  0  0  0
   18.9920   11.5309   34.8395 C   0  0  0  0  0  0
   19.3389   10.6281   35.5837 C   0  0  0  0  0  0
   16.5924   13.3783   35.3343 C   0  0  0  0  0  0
   15.9655   14.4185   36.0341 C   0  0  0  0  0  0
   14.9610   14.1823   36.9700 C   0  0  0  0  0  0
   14.5890   12.8746   37.2884 C   0  0  0  0  0  0
   15.1844   11.8204   36.5856 C   0  0  0  0  0  0
   16.1240   12.0811   35.5947 C   0  0  0  0  0  0
   14.8650   10.5294   36.8404 F   0  0  0  0  0  0
   13.5271   12.5977   38.3155 C   0  0  0  0  0  0
   13.7113   11.7801   39.2171 O   0  0  0  0  0  0
   12.3538   13.2095   38.0698 N   0  0  0  0  0  0
   11.0500   12.9727   38.7106 C   0  0  1  0  0  0
   10.5153   11.5114   38.5700 C   0  0  0  0  0  0
   10.4163   10.9207   37.1356 C   0  0  0  0  0  0
   11.7851   10.5981   36.4866 C   0  0  0  0  0  0
   11.8321    9.5195   35.4079 C   0  0  0  0  0  0
   12.8385    8.8491   35.1913 O   0  0  0  0  0  0
   10.6849    9.4281   34.6885 O   0  0  0  0  0  0
   10.9919   13.4288   40.1923 C   0  0  0  0  0  0
   11.7790   13.1004   41.0570 O   0  0  0  0  0  0
    9.8979   14.2281   40.3910 O   0  0  0  0  0  0
   13.9045   17.9207   32.8133 C   0  0  0  0  0  0
   13.0984   18.4376   31.7909 N   0  0  0  0  0  0
   13.1930   18.0358   30.5815 C   0  0  0  0  0  0
   14.0651   17.0542   30.1464 N   0  0  0  0  0  0
   12.2962   18.6630   29.5390 C   0  0  0  0  0  0
   13.8338   18.2197   34.0026 O   0  0  0  0  0  0
   10.3754   13.6072   38.1318 H   0  0  0  0  0  0
   17.5028   13.0939   30.8196 H   0  0  0  0  0  0
   18.1922   14.4945   29.9910 H   0  0  0  0  0  0
   18.8130   14.0585   31.5424 H   0  0  0  0  0  0
   15.9118   15.2180   29.5940 H   0  0  0  0  0  0
   15.8680   16.7492   34.3008 H   0  0  0  0  0  0
   18.8639   15.0747   33.4162 H   0  0  0  0  0  0
   17.9644   15.7110   34.7139 H   0  0  0  0  0  0
   18.1636   12.1159   33.0234 H   0  0  0  0  0  0
   19.5236   13.0484   33.5803 H   0  0  0  0  0  0
   19.6471    9.8375   36.2271 H   0  0  0  0  0  0
   16.2754   15.4365   35.9152 H   0  0  0  0  0  0
   14.5297   15.0278   37.4868 H   0  0  0  0  0  0
   16.4895   11.2300   35.0480 H   0  0  0  0  0  0
   12.3381   13.8596   37.2990 H   0  0  0  0  0  0
   11.1172   10.8336   39.1804 H   0  0  0  0  0  0
    9.5143   11.4665   39.0033 H   0  0  0  0  0  0
    9.8305   10.0008   37.2023 H   0  0  0  0  0  0
    9.8423   11.5889   36.4903 H   0  0  0  0  0  0
   12.2182   11.4941   36.0453 H   0  0  0  0  0  0
   12.4610   10.2457   37.2641 H   0  0  0  0  0  0
   10.7923    8.7114   34.0494 H   0  0  0  0  0  0
    9.4095   14.4045   39.5826 H   0  0  0  0  0  0
   11.7920   19.5510   29.9219 H   0  0  0  0  0  0
   12.8670   18.9723   28.6641 H   0  0  0  0  0  0
   11.5272   17.9651   29.2139 H   0  0  0  0  0  0
   14.0977   16.7994   29.1746 H   0  0  0  0  0  0
  1 40  1  0  0  0
  1 41  1  0  0  0
  1 42  1  0  0  0
  1  2  1  0  0  0
  2  7  1  0  0  0
  2  3  2  0  0  0
  3 43  1  0  0  0
  3  4  1  0  0  0
  4  5  2  0  0  0
  4 36  1  0  0  0
  5 33  1  0  0  0
  5  6  1  0  0  0
  6 44  1  0  0  0
  6  7  2  0  0  0
  7  8  1  0  0  0
  8  9  1  0  0  0
  8 45  1  0  0  0
  8 46  1  0  0  0
  9 10  1  0  0  0
  9 13  1  0  0  0
 10 11  1  0  0  0
 10 47  1  0  0  0
 10 48  1  0  0  0
 11 12  3  0  0  0
 12 49  1  0  0  0
 13 18  1  0  0  0
 13 14  2  0  0  0
 14 15  1  0  0  0
 14 50  1  0  0  0
 15 16  2  0  0  0
 15 51  1  0  0  0
 16 17  1  0  0  0
 16 20  1  0  0  0
 17 18  2  0  0  0
 17 19  1  0  0  0
 18 52  1  0  0  0
 20 21  2  0  0  0
 20 22  1  0  0  0
 22 23  1  0  0  0
 22 53  1  0  0  0
 23 39  1  0  0  0
 23 24  1  0  0  0
 23 30  1  0  0  0
 24 25  1  0  0  0
 24 54  1  0  0  0
 24 55  1  0  0  0
 25 26  1  0  0  0
 25 56  1  0  0  0
 25 57  1  0  0  0
 26 27  1  0  0  0
 26 58  1  0  0  0
 26 59  1  0  0  0
 27 28  2  0  0  0
 27 29  1  0  0  0
 29 60  1  0  0  0
 30 31  2  0  0  0
 30 32  1  0  0  0
 32 61  1  0  0  0
 33 38  2  0  0  0
 33 34  1  0  0  0
 34 35  2  0  0  0
 35 36  1  0  0  0
 35 37  1  0  0  0
 36 65  1  0  0  0
 37 62  1  0  0  0
 37 63  1  0  0  0
 37 64  1  0  0  0
M  END
> <s_m_entry_id>
41821

> <s_m_entry_name>
ligand_docking-pose.181

> <s_m_Source_Path>
/home/csk/Desktop/cluster/DUD-E-result/tysy

> <s_m_Source_File>
ligand_docking-pose.sdf

> <i_m_Source_File_Index>
181

> <i_lp_mmshare_version>
53161

> <i_f3d_flags>
0

> <r_lp_tautomer_probability>
0.116051

> <s_lp_Force_Field>
OPLS_2005

> <r_lp_Energy>
22.980295

> <b_lp_Chiralities_Consistent>
1

> <s_lp_Variant>
207211-2

> <s_i_glide_gridfile>
glide-grid_1syn

> <i_i_glide_lignum>
276

> <i_i_glide_rotatable_bonds>
15

> <r_i_docking_score>
-7.83154003851814

> <r_i_glide_ligand_efficiency>
-0.206093158908372

> <r_i_glide_ligand_efficiency_sa>
-0.692880130919321

> <r_i_glide_ligand_efficiency_ln>
-1.68871041287138

> <r_i_glide_gscore>
-7.83154003851814

> <r_i_glide_lipo>
-3.5793141632761

> <r_i_glide_hbond>
0

> <r_i_glide_metal>
0

> <r_i_glide_rewards>
-0.647624704141268

> <r_i_glide_evdw>
-58.6597709655762

> <r_i_glide_ecoul>
-10.7043237686157

> <r_i_glide_erotb>
0.97914214598674

> <r_i_glide_esite>
-0.0451062035163446

> <r_i_glide_emodel>
-98.5991499632748

> <r_i_glide_energy>
-69.3640947341919

> <r_i_glide_einternal>
8.63584518432617

> <i_i_glide_confnum>
6

> <i_i_glide_posenum>
119

> <r_i_glide_eff_state_penalty>
0

> <s_user_duplicate_titles>
207211

> <s_m_subgroup_title>
dock_pv

> <s_m_subgroupid>
dock_pv1

> <b_m_subgroup_collapsed>
0

$$$$
152248
                    3D
 Schrodinger Suite 2021-1.
 60 62  0  0  1  0            999 V2000
   19.8280   14.3986   32.9655 C   0  0  0  0  0  0
   18.9551   13.3369   33.6471 C   0  0  0  0  0  0
   17.7901   13.8029   34.4269 N   0  0  0  0  0  0
   17.5091   15.2374   34.6044 C   0  0  0  0  0  0
   16.3366   15.7649   33.7674 C   0  0  0  0  0  0
   15.3481   16.5315   34.3867 C   0  0  0  0  0  0
   14.3663   17.1827   33.6477 C   0  0  0  0  0  0
   14.3430   17.0620   32.2404 C   0  0  0  0  0  0
   15.3012   16.2228   31.5912 C   0  0  0  0  0  0
   16.2933   15.5784   32.3824 C   0  0  0  0  0  0
   15.2147   16.1031   30.1735 C   0  0  0  0  0  0
   14.2511   16.8370   29.4834 C   0  0  0  0  0  0
   13.3840   17.6597   30.1964 C   0  0  0  0  0  0
   13.4056   17.7655   31.5470 N   0  0  0  0  0  0
   12.3513   18.5131   29.4856 C   0  0  0  0  0  0
   16.2847   15.0855   29.2767 Cl  0  0  0  0  0  0
   17.0470   12.8481   35.1822 C   0  0  0  0  0  0
   17.4083   11.4904   35.1920 C   0  0  0  0  0  0
   16.6817   10.5546   35.9176 C   0  0  0  0  0  0
   15.5659   10.9448   36.6580 C   0  0  0  0  0  0
   15.1939   12.2943   36.6637 C   0  0  0  0  0  0
   15.9267   13.2270   35.9414 C   0  0  0  0  0  0
   14.8155    9.9258   37.4732 C   0  0  0  0  0  0
   15.3917    8.9434   37.9441 O   0  0  0  0  0  0
   13.5124   10.1884   37.6634 N   0  0  0  0  0  0
   12.5831    9.4137   38.4877 C   0  0  1  0  0  0
   12.3255   10.1837   39.8123 C   0  0  0  0  0  0
   13.5809   10.2680   40.7085 C   0  0  0  0  0  0
   13.4582   11.2300   41.8857 C   0  0  0  0  0  0
   12.5987   12.1029   41.9908 O   0  0  0  0  0  0
   14.4563   11.0299   42.7911 O   0  0  0  0  0  0
   11.3075    9.1227   37.6756 C   0  0  0  0  0  0
   10.2045    9.5426   37.9538 O   0  0  0  0  0  0
   11.6095    8.3193   36.6173 O   0  0  0  0  0  0
   13.0125    8.4401   38.7333 H   0  0  0  0  0  0
   20.6164   13.9139   32.3903 H   0  0  0  0  0  0
   19.2628   15.0263   32.2782 H   0  0  0  0  0  0
   20.3187   15.0283   33.7042 H   0  0  0  0  0  0
   19.6106   12.7587   34.3016 H   0  0  0  0  0  0
   18.6001   12.6388   32.8851 H   0  0  0  0  0  0
   17.3467   15.4257   35.6662 H   0  0  0  0  0  0
   18.3730   15.8516   34.3597 H   0  0  0  0  0  0
   15.3626   16.6640   35.4585 H   0  0  0  0  0  0
   13.6336   17.8071   34.1408 H   0  0  0  0  0  0
   17.0423   14.9693   31.8982 H   0  0  0  0  0  0
   14.1903   16.7748   28.4061 H   0  0  0  0  0  0
   12.5751   18.6046   28.4208 H   0  0  0  0  0  0
   11.3560   18.0792   29.5922 H   0  0  0  0  0  0
   12.3276   19.5214   29.9024 H   0  0  0  0  0  0
   18.2530   11.1234   34.6301 H   0  0  0  0  0  0
   16.9908    9.5208   35.8891 H   0  0  0  0  0  0
   14.3508   12.6465   37.2404 H   0  0  0  0  0  0
   15.5889   14.2489   35.9822 H   0  0  0  0  0  0
   13.1026   10.9575   37.1561 H   0  0  0  0  0  0
   11.5347    9.6889   40.3793 H   0  0  0  0  0  0
   11.9561   11.1875   39.5903 H   0  0  0  0  0  0
   14.4412   10.6039   40.1341 H   0  0  0  0  0  0
   13.8253    9.2731   41.0755 H   0  0  0  0  0  0
   14.4296   11.6356   43.5376 H   0  0  0  0  0  0
   10.8391    8.1442   36.0735 H   0  0  0  0  0  0
  1  2  1  0  0  0
  1 36  1  0  0  0
  1 37  1  0  0  0
  1 38  1  0  0  0
  2  3  1  0  0  0
  2 39  1  0  0  0
  2 40  1  0  0  0
  3  4  1  0  0  0
  3 17  1  0  0  0
  4  5  1  0  0  0
  4 41  1  0  0  0
  4 42  1  0  0  0
  5 10  1  0  0  0
  5  6  2  0  0  0
  6  7  1  0  0  0
  6 43  1  0  0  0
  7  8  2  0  0  0
  7 44  1  0  0  0
  8 14  1  0  0  0
  8  9  1  0  0  0
  9 10  2  0  0  0
  9 11  1  0  0  0
 10 45  1  0  0  0
 11 12  2  0  0  0
 11 16  1  0  0  0
 12 13  1  0  0  0
 12 46  1  0  0  0
 13 14  2  0  0  0
 13 15  1  0  0  0
 15 47  1  0  0  0
 15 48  1  0  0  0
 15 49  1  0  0  0
 17 22  1  0  0  0
 17 18  2  0  0  0
 18 19  1  0  0  0
 18 50  1  0  0  0
 19 20  2  0  0  0
 19 51  1  0  0  0
 20 21  1  0  0  0
 20 23  1  0  0  0
 21 22  2  0  0  0
 21 52  1  0  0  0
 22 53  1  0  0  0
 23 24  2  0  0  0
 23 25  1  0  0  0
 25 26  1  0  0  0
 25 54  1  0  0  0
 26 35  1  0  0  0
 26 27  1  0  0  0
 26 32  1  0  0  0
 27 28  1  0  0  0
 27 55  1  0  0  0
 27 56  1  0  0  0
 28 29  1  0  0  0
 28 57  1  0  0  0
 28 58  1  0  0  0
 29 30  2  0  0  0
 29 31  1  0  0  0
 31 59  1  0  0  0
 32 33  2  0  0  0
 32 34  1  0  0  0
 34 60  1  0  0  0
M  END
> <s_m_entry_id>
41824

> <s_m_entry_name>
ligand_docking-pose.184

> <s_m_Source_Path>
/home/csk/Desktop/cluster/DUD-E-result/tysy

> <s_m_Source_File>
ligand_docking-pose.sdf

> <i_m_Source_File_Index>
184

> <i_lp_mmshare_version>
53161

> <i_f3d_flags>
0

> <r_lp_tautomer_probability>
1

> <s_lp_Force_Field>
OPLS_2005

> <r_lp_Energy>
19.157058

> <b_lp_Chiralities_Consistent>
1

> <s_lp_Variant>
152248-1

> <s_i_glide_gridfile>
glide-grid_1syn

> <i_i_glide_lignum>
832

> <i_i_glide_rotatable_bonds>
13

> <r_i_docking_score>
-7.79912583661478

> <r_i_glide_ligand_efficiency>
-0.229386054018082

> <r_i_glide_ligand_efficiency_sa>
-0.743121766771947

> <r_i_glide_ligand_efficiency_ln>
-1.72304565537809

> <r_i_glide_gscore>
-7.79912583661478

> <r_i_glide_lipo>
-4.12135321020429

> <r_i_glide_hbond>
-0.287263574971261

> <r_i_glide_metal>
0

> <r_i_glide_rewards>
-0.584552377920392

> <r_i_glide_evdw>
-50.9333686828613

> <r_i_glide_ecoul>
-7.50490379333496

> <r_i_glide_erotb>
0.866962276667856

> <r_i_glide_esite>
-0.000514947043382893

> <r_i_glide_emodel>
-80.845987464904

> <r_i_glide_energy>
-58.4382724761963

> <r_i_glide_einternal>
10.5668935775757

> <i_i_glide_confnum>
105

> <i_i_glide_posenum>
34

> <r_i_glide_eff_state_penalty>
0

> <s_user_duplicate_titles>
152248

> <s_m_subgroup_title>
dock_pv

> <s_m_subgroupid>
dock_pv1

> <b_m_subgroup_collapsed>
0

$$$$
184530
                    3D
 Schrodinger Suite 2021-1.
 66 68  0  0  1  0            999 V2000
   13.7242   17.6036   28.6356 C   0  0  0  0  0  0
   14.3923   17.1137   29.8972 C   0  0  0  0  0  0
   15.2366   16.1471   29.8746 N   0  0  0  0  0  0
   15.8516   15.7391   31.0727 C   0  0  0  0  0  0
   16.7686   14.6906   31.0382 C   0  0  0  0  0  0
   17.3954   14.2707   32.2166 C   0  0  0  0  0  0
   17.1077   14.8999   33.4385 C   0  0  0  0  0  0
   16.2123   15.9737   33.4661 C   0  0  0  0  0  0
   15.5819   16.3753   32.2898 C   0  0  0  0  0  0
   14.5922   17.5130   32.2927 C   0  0  0  0  0  0
   14.0865   17.7617   31.0619 N   0  0  0  0  0  0
   14.2615   18.1755   33.2703 O   0  0  0  0  0  0
   17.7902   14.4535   34.7290 C   0  0  0  0  0  0
   17.5077   13.0440   35.0632 N   0  0  0  0  0  0
   18.7048   12.1804   35.1023 C   0  0  0  0  0  0
   18.5925   10.8551   34.4690 C   0  0  0  0  0  0
   18.5920    9.7166   34.0310 C   0  0  0  0  0  0
   16.3278   12.7228   35.8116 C   0  0  0  0  0  0
   15.2896   13.6550   35.9898 C   0  0  0  0  0  0
   14.1150   13.3299   36.6656 C   0  0  0  0  0  0
   13.9313   12.0461   37.1949 C   0  0  0  0  0  0
   14.9724   11.1228   37.0647 C   0  0  0  0  0  0
   16.1431   11.4578   36.3932 C   0  0  0  0  0  0
   12.6448   11.6208   37.8726 C   0  0  0  0  0  0
   12.5908   10.5633   38.5052 O   0  0  0  0  0  0
   11.5730   12.4173   37.7076 N   0  0  0  0  0  0
   10.2098   12.0928   38.1449 C   0  0  2  0  0  0
    9.4334   11.2808   37.0654 C   0  0  0  0  0  0
    9.3904   11.8997   35.6352 C   0  0  0  0  0  0
    9.8972   10.9673   34.5269 C   0  0  0  0  0  0
   11.0124   10.4562   34.6223 O   0  0  0  0  0  0
    9.0853   10.7742   33.4748 N   0  0  0  0  0  0
    9.3882    9.9117   32.3225 C   0  0  0  0  0  0
    8.1527    9.0718   31.9480 C   0  0  0  0  0  0
    7.0728    9.1371   32.5046 O   0  0  0  0  0  0
    8.4541    8.2382   30.9118 O   0  0  0  0  0  0
    9.5090   13.3477   38.7104 C   0  0  0  0  0  0
    9.7913   13.8287   39.7872 O   0  0  0  0  0  0
    8.5500   13.8283   37.8697 O   0  0  0  0  0  0
   10.2808   11.4365   39.0147 H   0  0  0  0  0  0
   13.9788   18.6458   28.4437 H   0  0  0  0  0  0
   14.0306   17.0249   27.7651 H   0  0  0  0  0  0
   12.6406   17.5332   28.7194 H   0  0  0  0  0  0
   16.9894   14.1995   30.1018 H   0  0  0  0  0  0
   18.0993   13.4493   32.1817 H   0  0  0  0  0  0
   15.9948   16.4832   34.3947 H   0  0  0  0  0  0
   13.4379   18.5336   31.0401 H   0  0  0  0  0  0
   18.8594   14.6264   34.5944 H   0  0  0  0  0  0
   17.5142   15.1015   35.5616 H   0  0  0  0  0  0
   19.5645   12.6534   34.6247 H   0  0  0  0  0  0
   18.9874   12.0056   36.1363 H   0  0  0  0  0  0
   18.6531    8.7012   33.7176 H   0  0  0  0  0  0
   15.3584   14.6517   35.5930 H   0  0  0  0  0  0
   13.3539   14.0918   36.7503 H   0  0  0  0  0  0
   14.8791   10.1248   37.4703 H   0  0  0  0  0  0
   16.8970   10.6927   36.3466 H   0  0  0  0  0  0
   11.6775   13.2802   37.1992 H   0  0  0  0  0  0
    9.8690   10.2788   37.0378 H   0  0  0  0  0  0
    8.4122   11.0916   37.4019 H   0  0  0  0  0  0
    8.3868   12.2719   35.4233 H   0  0  0  0  0  0
   10.0118   12.7938   35.5874 H   0  0  0  0  0  0
    8.2029   11.2659   33.4419 H   0  0  0  0  0  0
    9.6987   10.5228   31.4723 H   0  0  0  0  0  0
   10.1966    9.2168   32.5505 H   0  0  0  0  0  0
    9.3654    8.2958   30.6045 H   0  0  0  0  0  0
    8.1975   14.6665   38.2024 H   0  0  0  0  0  0
  1 41  1  0  0  0
  1 42  1  0  0  0
  1 43  1  0  0  0
  1  2  1  0  0  0
  2  3  2  0  0  0
  2 11  1  0  0  0
  3  4  1  0  0  0
  4  9  2  0  0  0
  4  5  1  0  0  0
  5  6  2  0  0  0
  5 44  1  0  0  0
  6  7  1  0  0  0
  6 45  1  0  0  0
  7  8  2  0  0  0
  7 13  1  0  0  0
  8  9  1  0  0  0
  8 46  1  0  0  0
  9 10  1  0  0  0
 10 12  2  0  0  0
 10 11  1  0  0  0
 11 47  1  0  0  0
 13 14  1  0  0  0
 13 48  1  0  0  0
 13 49  1  0  0  0
 14 15  1  0  0  0
 14 18  1  0  0  0
 15 16  1  0  0  0
 15 50  1  0  0  0
 15 51  1  0  0  0
 16 17  3  0  0  0
 17 52  1  0  0  0
 18 23  1  0  0  0
 18 19  2  0  0  0
 19 20  1  0  0  0
 19 53  1  0  0  0
 20 21  2  0  0  0
 20 54  1  0  0  0
 21 22  1  0  0  0
 21 24  1  0  0  0
 22 23  2  0  0  0
 22 55  1  0  0  0
 23 56  1  0  0  0
 24 25  2  0  0  0
 24 26  1  0  0  0
 26 27  1  0  0  0
 26 57  1  0  0  0
 27 40  1  0  0  0
 27 28  1  0  0  0
 27 37  1  0  0  0
 28 29  1  0  0  0
 28 58  1  0  0  0
 28 59  1  0  0  0
 29 30  1  0  0  0
 29 60  1  0  0  0
 29 61  1  0  0  0
 30 31  2  0  0  0
 30 32  1  0  0  0
 32 33  1  0  0  0
 32 62  1  0  0  0
 33 34  1  0  0  0
 33 63  1  0  0  0
 33 64  1  0  0  0
 34 35  2  0  0  0
 34 36  1  0  0  0
 36 65  1  0  0  0
 37 38  2  0  0  0
 37 39  1  0  0  0
 39 66  1  0  0  0
M  END
> <s_m_entry_id>
41830

> <s_m_entry_name>
ligand_docking-pose.190

> <s_m_Source_Path>
/home/csk/Desktop/cluster/DUD-E-result/tysy

> <s_m_Source_File>
ligand_docking-pose.sdf

> <i_m_Source_File_Index>
190

> <i_lp_mmshare_version>
53161

> <i_f3d_flags>
0

> <r_lp_tautomer_probability>
0.883938

> <s_lp_Force_Field>
OPLS_2005

> <r_lp_Energy>
18.497268

> <b_lp_Chiralities_Consistent>
1

> <s_lp_Variant>
184530-1

> <s_i_glide_gridfile>
glide-grid_1syn

> <i_i_glide_lignum>
582

> <i_i_glide_rotatable_bonds>
17

> <r_i_docking_score>
-7.74523787465066

> <r_i_glide_ligand_efficiency>
-0.19859584293976

> <r_i_glide_ligand_efficiency_sa>
-0.673480494289914

> <r_i_glide_ligand_efficiency_ln>
-1.66079886197678

> <r_i_glide_gscore>
-7.74523787465066

> <r_i_glide_lipo>
-3.48688552843535

> <r_i_glide_hbond>
0

> <r_i_glide_metal>
0

> <r_i_glide_rewards>
-0.764356680249829

> <r_i_glide_evdw>
-61.3741073608398

> <r_i_glide_ecoul>
-9.96361255645752

> <r_i_glide_erotb>
1.087245064805

> <r_i_glide_esite>
-0.0179934792598582

> <r_i_glide_emodel>
-98.1380366701783

> <r_i_glide_energy>
-71.3377199172974

> <r_i_glide_einternal>
10.3872404098511

> <i_i_glide_confnum>
22

> <i_i_glide_posenum>
48

> <r_i_glide_eff_state_penalty>
0

> <s_user_duplicate_titles>
184530

> <s_m_subgroup_title>
dock_pv

> <s_m_subgroupid>
dock_pv1

> <b_m_subgroup_collapsed>
0

$$$$
282107
                    3D
 Schrodinger Suite 2021-1.
 57 59  0  0  1  0            999 V2000
   19.3941   15.3809   34.0631 C   0  0  0  0  0  0
   18.3294   14.3964   34.5371 C   0  0  0  0  0  0
   16.9329   14.8364   34.3809 N   0  0  0  0  0  0
   16.5581   15.2315   32.9999 C   0  0  0  0  0  0
   15.5749   16.3962   32.8218 C   0  0  0  0  0  0
   15.3408   17.3360   33.8314 C   0  0  0  0  0  0
   14.4154   18.3565   33.6770 C   0  0  0  0  0  0
   13.7460   18.4857   32.4755 C   0  0  0  0  0  0
   13.9933   17.5942   31.4235 C   0  0  0  0  0  0
   14.9075   16.5433   31.5997 C   0  0  0  0  0  0
   13.2525   17.7805   30.1069 C   0  0  0  0  0  0
   12.3799   18.8728   30.0553 N   0  0  0  0  0  0
   12.1921   19.6308   31.0678 C   0  0  0  0  0  0
   12.8095   19.5022   32.2943 N   0  0  0  0  0  0
   13.4447   16.9835   29.1909 O   0  0  0  0  0  0
   15.9818   14.1606   35.2118 C   0  0  0  0  0  0
   14.6680   14.6281   35.3597 C   0  0  0  0  0  0
   13.7701   14.0368   36.2361 C   0  0  0  0  0  0
   14.1433   12.9172   36.9830 C   0  0  0  0  0  0
   15.4163   12.3793   36.7908 C   0  0  0  0  0  0
   16.3194   12.9984   35.9345 C   0  0  0  0  0  0
   13.2180   12.3089   38.0053 C   0  0  0  0  0  0
   13.3731   11.1521   38.4016 O   0  0  0  0  0  0
   12.2927   13.1432   38.5100 N   0  0  0  0  0  0
   11.3609   12.8395   39.5973 C   0  0  1  0  0  0
   11.9611   13.3384   40.9446 C   0  0  0  0  0  0
   13.3131   12.6838   41.3157 C   0  0  0  0  0  0
   13.7536   12.9306   42.7559 C   0  0  0  0  0  0
   13.3723   13.8696   43.4508 O   0  0  0  0  0  0
   14.5916   11.9525   43.1909 O   0  0  0  0  0  0
    9.9685   13.4277   39.2842 C   0  0  0  0  0  0
    9.3924   14.2275   39.9911 O   0  0  0  0  0  0
    9.4788   12.9167   38.1197 O   0  0  0  0  0  0
   20.3680   15.0276   34.4022 H   0  0  0  0  0  0
   19.4487   15.4276   32.9778 H   0  0  0  0  0  0
   19.2332   16.3836   34.4599 H   0  0  0  0  0  0
   18.5404   14.2158   35.5904 H   0  0  0  0  0  0
   18.4678   13.4393   34.0284 H   0  0  0  0  0  0
   17.4361   15.5138   32.4229 H   0  0  0  0  0  0
   16.1915   14.3508   32.4753 H   0  0  0  0  0  0
   15.7920   17.2206   34.7911 H   0  0  0  0  0  0
   14.2064   19.0282   34.4944 H   0  0  0  0  0  0
   15.0970   15.8398   30.7990 H   0  0  0  0  0  0
   11.5072   20.4732   31.0184 H   0  0  0  0  0  0
   12.6308   20.1519   33.0518 H   0  0  0  0  0  0
   14.2776   15.4601   34.8154 H   0  0  0  0  0  0
   12.7816   14.4653   36.3103 H   0  0  0  0  0  0
   15.7365   11.5037   37.3388 H   0  0  0  0  0  0
   17.2903   12.5368   35.8519 H   0  0  0  0  0  0
   12.2221   14.0699   38.1209 H   0  0  0  0  0  0
   11.2143   11.7590   39.6609 H   0  0  0  0  0  0
   11.2414   13.1674   41.7421 H   0  0  0  0  0  0
   12.1048   14.4202   40.9016 H   0  0  0  0  0  0
   14.1075   13.0335   40.6561 H   0  0  0  0  0  0
   13.2395   11.6053   41.1672 H   0  0  0  0  0  0
   14.8286   12.0394   44.1286 H   0  0  0  0  0  0
    8.6204   13.2975   37.9211 H   0  0  0  0  0  0
  1  2  1  0  0  0
  1 34  1  0  0  0
  1 35  1  0  0  0
  1 36  1  0  0  0
  2  3  1  0  0  0
  2 37  1  0  0  0
  2 38  1  0  0  0
  3  4  1  0  0  0
  3 16  1  0  0  0
  4 39  1  0  0  0
  4 40  1  0  0  0
  4  5  1  0  0  0
  5 10  2  0  0  0
  5  6  1  0  0  0
  6 41  1  0  0  0
  6  7  2  0  0  0
  7 42  1  0  0  0
  7  8  1  0  0  0
  8  9  2  0  0  0
  8 14  1  0  0  0
  9 11  1  0  0  0
  9 10  1  0  0  0
 10 43  1  0  0  0
 11 15  2  0  0  0
 11 12  1  0  0  0
 12 13  2  0  0  0
 13 14  1  0  0  0
 13 44  1  0  0  0
 14 45  1  0  0  0
 16 21  1  0  0  0
 16 17  2  0  0  0
 17 18  1  0  0  0
 17 46  1  0  0  0
 18 19  2  0  0  0
 18 47  1  0  0  0
 19 20  1  0  0  0
 19 22  1  0  0  0
 20 21  2  0  0  0
 20 48  1  0  0  0
 21 49  1  0  0  0
 22 23  2  0  0  0
 22 24  1  0  0  0
 24 25  1  0  0  0
 24 50  1  0  0  0
 25 26  1  0  0  0
 25 31  1  0  0  0
 25 51  1  0  0  0
 26 27  1  0  0  0
 26 52  1  0  0  0
 26 53  1  0  0  0
 27 28  1  0  0  0
 27 54  1  0  0  0
 27 55  1  0  0  0
 28 29  2  0  0  0
 28 30  1  0  0  0
 30 56  1  0  0  0
 31 32  2  0  0  0
 31 33  1  0  0  0
 33 57  1  0  0  0
M  END
> <s_m_entry_id>
41831

> <s_m_entry_name>
ligand_docking-pose.191

> <s_m_Source_Path>
/home/csk/Desktop/cluster/DUD-E-result/tysy

> <s_m_Source_File>
ligand_docking-pose.sdf

> <i_m_Source_File_Index>
191

> <i_lp_mmshare_version>
53161

> <i_f3d_flags>
0

> <r_lp_tautomer_probability>
0.116051

> <s_lp_Force_Field>
OPLS_2005

> <r_lp_Energy>
18.813942

> <b_lp_Chiralities_Consistent>
1

> <s_lp_Variant>
282107-4

> <s_i_glide_gridfile>
glide-grid_1syn

> <i_i_glide_lignum>
882

> <i_i_glide_rotatable_bonds>
13

> <r_i_docking_score>
-7.74158539233408

> <r_i_glide_ligand_efficiency>
-0.234593496737396

> <r_i_glide_ligand_efficiency_sa>
-0.752466693501961

> <r_i_glide_ligand_efficiency_ln>
-1.72168850747118

> <r_i_glide_gscore>
-7.74158539233408

> <r_i_glide_lipo>
-3.52081079416887

> <r_i_glide_hbond>
-0.287920155500736

> <r_i_glide_metal>
0

> <r_i_glide_rewards>
-0.637250776452381

> <r_i_glide_evdw>
-53.2830581665039

> <r_i_glide_ecoul>
-10.6889019012451

> <r_i_glide_erotb>
0.980133647451698

> <r_i_glide_esite>
-0.00824912015182947

> <r_i_glide_emodel>
-89.3315159380523

> <r_i_glide_energy>
-63.971960067749

> <r_i_glide_einternal>
12.4368886947632

> <i_i_glide_confnum>
156

> <i_i_glide_posenum>
308

> <r_i_glide_eff_state_penalty>
0

> <s_user_duplicate_titles>
282107

> <s_m_subgroup_title>
dock_pv

> <s_m_subgroupid>
dock_pv1

> <b_m_subgroup_collapsed>
0

$$$$
104175
                    3D
 Schrodinger Suite 2021-1.
 36 39  0  0  1  0            999 V2000
   18.2458   12.0567   35.1761 C   0  0  0  0  0  0
   17.1100   12.2755   35.9498 C   0  0  0  0  0  0
   16.2327   13.3570   35.6685 C   0  0  0  0  0  0
   15.0008   13.5963   36.3643 C   0  0  0  0  0  0
   14.2166   14.6863   35.9842 C   0  0  0  0  0  0
   14.5927   15.5529   34.9669 C   0  0  0  0  0  0
   15.7601   15.3348   34.2364 C   0  0  0  0  0  0
   16.5919   14.2281   34.5935 C   0  0  0  0  0  0
   17.7204   13.9621   33.7643 C   0  0  0  0  0  0
   18.5353   12.8763   34.0919 C   0  0  0  0  0  0
   17.9796   14.7565   32.5284 C   0  0  0  0  0  0
   18.9532   14.6271   31.7907 O   0  0  0  0  0  0
   16.9938   15.5939   32.0869 O   0  0  0  0  0  0
   16.1501   16.2348   33.0230 C   0  0  1  0  0  0
   14.9161   16.7690   32.2176 C   0  0  0  0  0  0
   14.3900   15.9954   31.1753 C   0  0  0  0  0  0
   13.3457   16.4674   30.3872 C   0  0  0  0  0  0
   12.7985   17.7253   30.6192 C   0  0  0  0  0  0
   13.2849   18.5068   31.6713 C   0  0  0  0  0  0
   14.3330   18.0262   32.4652 C   0  0  0  0  0  0
   12.6174   20.0709   31.9909 Cl  0  0  0  0  0  0
   11.7920   18.1600   29.7951 O   0  0  0  0  0  0
   16.8117   17.2852   33.5910 O   0  0  0  0  0  0
   14.4913   12.7121   37.4361 N   0  3  0  0  0  0
   13.9379   13.2375   38.3982 O   0  5  0  0  0  0
   14.5925   11.4969   37.3005 O   0  0  0  0  0  0
   18.8996   11.2235   35.3953 H   0  0  0  0  0  0
   16.9147   11.6093   36.7750 H   0  0  0  0  0  0
   13.2664   14.8499   36.4660 H   0  0  0  0  0  0
   13.9398   16.3775   34.7216 H   0  0  0  0  0  0
   19.3921   12.6310   33.4792 H   0  0  0  0  0  0
   14.8100   15.0278   30.9508 H   0  0  0  0  0  0
   12.9647   15.8532   29.5889 H   0  0  0  0  0  0
   14.7044   18.6533   33.2633 H   0  0  0  0  0  0
   11.3271   18.9532   30.0906 H   0  0  0  0  0  0
   17.6339   16.9400   33.9460 H   0  0  0  0  0  0
  1 10  1  0  0  0
  1  2  2  0  0  0
  1 27  1  0  0  0
  2  3  1  0  0  0
  2 28  1  0  0  0
  3  8  2  0  0  0
  3  4  1  0  0  0
  4  5  2  0  0  0
  4 24  1  0  0  0
  5  6  1  0  0  0
  5 29  1  0  0  0
  6  7  2  0  0  0
  6 30  1  0  0  0
  7 14  1  0  0  0
  7  8  1  0  0  0
  8  9  1  0  0  0
  9 10  2  0  0  0
  9 11  1  0  0  0
 10 31  1  0  0  0
 11 12  2  0  0  0
 11 13  1  0  0  0
 13 14  1  0  0  0
 14 15  1  0  0  0
 14 23  1  0  0  0
 15 20  1  0  0  0
 15 16  2  0  0  0
 16 17  1  0  0  0
 16 32  1  0  0  0
 17 18  2  0  0  0
 17 33  1  0  0  0
 18 19  1  0  0  0
 18 22  1  0  0  0
 19 20  2  0  0  0
 19 21  1  0  0  0
 20 34  1  0  0  0
 22 35  1  0  0  0
 23 36  1  0  0  0
 24 25  1  0  0  0
 24 26  2  0  0  0
M  CHG  2  24   1  25  -1
M  END
> <s_m_entry_id>
41832

> <s_m_entry_name>
ligand_docking-pose.192

> <s_m_Source_Path>
/home/csk/Desktop/cluster/DUD-E-result/tysy

> <s_m_Source_File>
ligand_docking-pose.sdf

> <i_m_Source_File_Index>
192

> <i_lp_mmshare_version>
53161

> <i_f3d_flags>
0

> <r_lp_tautomer_probability>
0.999999999997365

> <s_lp_Force_Field>
OPLS_2005

> <r_lp_Energy>
43.944885

> <b_lp_Chiralities_Consistent>
1

> <s_lp_Variant>
104175-1

> <s_i_glide_gridfile>
glide-grid_1syn

> <i_i_glide_lignum>
7

> <i_i_glide_rotatable_bonds>
4

> <r_i_docking_score>
-7.74064141840987

> <r_i_glide_ligand_efficiency>
-0.297716977631149

> <r_i_glide_ligand_efficiency_sa>
-0.881985374772539

> <r_i_glide_ligand_efficiency_ln>
-1.81786423799742

> <r_i_glide_gscore>
-7.74064141840987

> <r_i_glide_lipo>
-3.54557990851706

> <r_i_glide_hbond>
-0.256304589264536

> <r_i_glide_metal>
0

> <r_i_glide_rewards>
-1.70791563059797

> <r_i_glide_evdw>
-39.9207000732422

> <r_i_glide_ecoul>
-2.49682259559631

> <r_i_glide_erotb>
0.139717102971255

> <r_i_glide_esite>
0

> <r_i_glide_emodel>
-60.2429048085684

> <r_i_glide_energy>
-42.4175226688385

> <r_i_glide_einternal>
1.57424676418304

> <i_i_glide_confnum>
2

> <i_i_glide_posenum>
73

> <r_i_glide_eff_state_penalty>
0

> <s_user_duplicate_titles>
104175

> <s_m_subgroup_title>
dock_pv

> <s_m_subgroupid>
dock_pv1

> <b_m_subgroup_collapsed>
0

$$$$
207190
                    3D
 Schrodinger Suite 2021-1.
 68 70  0  0  1  0            999 V2000
   10.1650   11.8423   37.8517 C   0  0  0  0  0  0
   11.2586   11.6079   38.8853 C   0  0  0  0  0  0
   11.3928   12.5307   39.9294 C   0  0  0  0  0  0
   12.3601   12.3423   40.9085 C   0  0  0  0  0  0
   13.1576   11.1981   40.8842 C   0  0  0  0  0  0
   13.0614   10.2833   39.8372 C   0  0  0  0  0  0
   12.1301   10.4986   38.8126 C   0  0  0  0  0  0
   12.1103    9.5332   37.6172 C   0  0  0  0  0  0
   13.4562    9.2207   37.0721 N   0  0  0  0  0  0
   13.9731    7.8357   37.0476 C   0  0  0  0  0  0
   12.9840    6.7478   36.9209 C   0  0  0  0  0  0
   12.1914    5.8282   36.7911 C   0  0  0  0  0  0
   14.3299   10.2769   36.6690 C   0  0  0  0  0  0
   15.6929   10.0560   36.4028 C   0  0  0  0  0  0
   16.5259   11.0831   35.9624 C   0  0  0  0  0  0
   16.0250   12.3794   35.7855 C   0  0  0  0  0  0
   14.6835   12.6278   36.0984 C   0  0  0  0  0  0
   13.8569   11.5869   36.5043 C   0  0  0  0  0  0
   14.1433   13.8644   35.9808 F   0  0  0  0  0  0
   16.8782   13.4683   35.1911 C   0  0  0  0  0  0
   16.7911   14.6280   35.5914 O   0  0  0  0  0  0
   17.6679   13.0717   34.1723 N   0  0  0  0  0  0
   18.5787   13.8840   33.3546 C   0  0  1  0  0  0
   17.8765   14.9168   32.4184 C   0  0  0  0  0  0
   16.6550   14.4004   31.6326 C   0  0  0  0  0  0
   16.5056   15.0233   30.2299 C   0  0  0  0  0  0
   15.1944   14.6279   29.5088 C   0  0  0  0  0  0
   13.9594   15.4016   29.9910 C   0  0  0  0  0  0
   13.9865   16.5910   30.2941 O   0  0  0  0  0  0
   12.8346   14.6280   29.9910 O   0  0  0  0  0  0
   19.6137   14.5774   34.2539 C   0  0  0  0  0  0
   19.3920   15.6435   34.7883 O   0  0  0  0  0  0
   20.7522   13.8280   34.3909 O   0  0  0  0  0  0
   14.1920   11.0439   41.9698 C   0  0  0  0  0  0
   14.1357   12.0181   42.8983 N   0  0  0  0  0  0
   13.3480   13.1214   42.8595 C   0  0  0  0  0  0
   12.4674   13.2908   41.9425 N   0  0  0  0  0  0
   13.4368   14.0779   44.0005 C   0  0  0  0  0  0
   15.1028   10.2280   41.9910 O   0  0  0  0  0  0
   19.0979   13.1760   32.7116 H   0  0  0  0  0  0
   10.5867   12.1470   36.8942 H   0  0  0  0  0  0
    9.5951   10.9271   37.6899 H   0  0  0  0  0  0
    9.4535   12.6034   38.1745 H   0  0  0  0  0  0
   10.7575   13.4022   39.9762 H   0  0  0  0  0  0
   13.7231    9.4276   39.7914 H   0  0  0  0  0  0
   11.5974    8.6374   37.9651 H   0  0  0  0  0  0
   11.4998    9.9098   36.7968 H   0  0  0  0  0  0
   14.5831    7.6911   36.1557 H   0  0  0  0  0  0
   14.6059    7.6473   37.9156 H   0  0  0  0  0  0
   11.5162    5.0135   36.6516 H   0  0  0  0  0  0
   16.1392    9.0828   36.5204 H   0  0  0  0  0  0
   17.5624   10.8562   35.7524 H   0  0  0  0  0  0
   12.8237   11.8313   36.6679 H   0  0  0  0  0  0
   17.6448   12.0968   33.9200 H   0  0  0  0  0  0
   17.5511   15.7925   32.9849 H   0  0  0  0  0  0
   18.6176   15.2919   31.7121 H   0  0  0  0  0  0
   16.7006   13.3150   31.5321 H   0  0  0  0  0  0
   15.7677   14.6280   32.2232 H   0  0  0  0  0  0
   16.5920   16.1097   30.2914 H   0  0  0  0  0  0
   17.3501   14.7012   29.6203 H   0  0  0  0  0  0
   15.2904   14.8594   28.4473 H   0  0  0  0  0  0
   15.0428   13.5492   29.5691 H   0  0  0  0  0  0
   12.9920   13.6861   29.8318 H   0  0  0  0  0  0
   20.8361   13.0559   33.8067 H   0  0  0  0  0  0
   12.9920   15.0281   43.7190 H   0  0  0  0  0  0
   12.8924   13.6986   44.8643 H   0  0  0  0  0  0
   14.4713   14.2280   44.3052 H   0  0  0  0  0  0
   14.7895   11.9088   43.6622 H   0  0  0  0  0  0
  1 41  1  0  0  0
  1 42  1  0  0  0
  1 43  1  0  0  0
  1  2  1  0  0  0
  2  7  1  0  0  0
  2  3  2  0  0  0
  3 44  1  0  0  0
  3  4  1  0  0  0
  4  5  2  0  0  0
  4 37  1  0  0  0
  5 34  1  0  0  0
  5  6  1  0  0  0
  6 45  1  0  0  0
  6  7  2  0  0  0
  7  8  1  0  0  0
  8  9  1  0  0  0
  8 46  1  0  0  0
  8 47  1  0  0  0
  9 10  1  0  0  0
  9 13  1  0  0  0
 10 11  1  0  0  0
 10 48  1  0  0  0
 10 49  1  0  0  0
 11 12  3  0  0  0
 12 50  1  0  0  0
 13 18  1  0  0  0
 13 14  2  0  0  0
 14 15  1  0  0  0
 14 51  1  0  0  0
 15 16  2  0  0  0
 15 52  1  0  0  0
 16 17  1  0  0  0
 16 20  1  0  0  0
 17 18  2  0  0  0
 17 19  1  0  0  0
 18 53  1  0  0  0
 20 21  2  0  0  0
 20 22  1  0  0  0
 22 23  1  0  0  0
 22 54  1  0  0  0
 23 40  1  0  0  0
 23 24  1  0  0  0
 23 31  1  0  0  0
 24 25  1  0  0  0
 24 55  1  0  0  0
 24 56  1  0  0  0
 25 26  1  0  0  0
 25 57  1  0  0  0
 25 58  1  0  0  0
 26 27  1  0  0  0
 26 59  1  0  0  0
 26 60  1  0  0  0
 27 28  1  0  0  0
 27 61  1  0  0  0
 27 62  1  0  0  0
 28 29  2  0  0  0
 28 30  1  0  0  0
 30 63  1  0  0  0
 31 32  2  0  0  0
 31 33  1  0  0  0
 33 64  1  0  0  0
 34 39  2  0  0  0
 34 35  1  0  0  0
 35 36  1  0  0  0
 35 68  1  0  0  0
 36 37  2  0  0  0
 36 38  1  0  0  0
 38 65  1  0  0  0
 38 66  1  0  0  0
 38 67  1  0  0  0
M  END
> <s_m_entry_id>
41833

> <s_m_entry_name>
ligand_docking-pose.193

> <s_m_Source_Path>
/home/csk/Desktop/cluster/DUD-E-result/tysy

> <s_m_Source_File>
ligand_docking-pose.sdf

> <i_m_Source_File_Index>
193

> <i_lp_mmshare_version>
53161

> <i_f3d_flags>
0

> <r_lp_tautomer_probability>
0.883938

> <s_lp_Force_Field>
OPLS_2005

> <r_lp_Energy>
25.657037

> <b_lp_Chiralities_Consistent>
1

> <s_lp_Variant>
207190-1

> <s_i_glide_gridfile>
glide-grid_1syn

> <i_i_glide_lignum>
269

> <i_i_glide_rotatable_bonds>
16

> <r_i_docking_score>
-7.73663053881394

> <r_i_glide_ligand_efficiency>
-0.19837514202087

> <r_i_glide_ligand_efficiency_sa>
-0.672732050809204

> <r_i_glide_ligand_efficiency_ln>
-1.65895320483963

> <r_i_glide_gscore>
-7.73663053881394

> <r_i_glide_lipo>
-1.95093003733074

> <r_i_glide_hbond>
-0.383712947057114

> <r_i_glide_metal>
0

> <r_i_glide_rewards>
-1.80698405514475

> <r_i_glide_evdw>
-47.3761100769043

> <r_i_glide_ecoul>
-14.5027379989624

> <r_i_glide_erotb>
1.00426705533238

> <r_i_glide_esite>
-0.055054350924131

> <r_i_glide_emodel>
-85.8797164320887

> <r_i_glide_energy>
-61.8788480758667

> <r_i_glide_einternal>
8.55909156799316

> <i_i_glide_confnum>
21

> <i_i_glide_posenum>
347

> <r_i_glide_eff_state_penalty>
0

> <s_user_duplicate_titles>
207190

> <s_m_subgroup_title>
dock_pv

> <s_m_subgroupid>
dock_pv1

> <b_m_subgroup_collapsed>
0

$$$$
184075
                    3D
 Schrodinger Suite 2021-1.
 73 76  0  0  1  0            999 V2000
   12.4506   18.0871   29.1993 C   0  0  0  0  0  0
   13.3869   17.6492   30.2984 C   0  0  0  0  0  0
   14.3249   16.6885   29.9686 N   0  0  0  0  0  0
   15.2239   16.2287   30.9338 C   0  0  0  0  0  0
   16.1927   15.2775   30.6301 C   0  0  0  0  0  0
   17.0929   14.8720   31.6189 C   0  0  0  0  0  0
   17.0231   15.4180   32.9086 C   0  0  0  0  0  0
   16.0462   16.3702   33.2069 C   0  0  0  0  0  0
   15.1387   16.7703   32.2216 C   0  0  0  0  0  0
   14.0620   17.7976   32.5379 C   0  0  0  0  0  0
   13.2469   18.1639   31.4596 N   0  0  0  0  0  0
   13.9631   18.2287   33.6848 O   0  0  0  0  0  0
   18.0238   15.0154   33.9793 C   0  0  0  0  0  0
   17.7737   13.6554   34.4743 N   0  0  0  0  0  0
   18.6303   12.6073   33.8824 C   0  0  0  0  0  0
   18.9920   11.5115   34.7987 C   0  0  0  0  0  0
   19.2567   10.6192   35.5853 C   0  0  0  0  0  0
   16.6313   13.3772   35.2906 C   0  0  0  0  0  0
   16.1106   12.0801   35.4036 C   0  0  0  0  0  0
   15.0716   11.7764   36.2686 C   0  0  0  0  0  0
   14.4980   12.7727   37.0573 C   0  0  0  0  0  0
   14.9459   14.0922   36.8976 C   0  0  0  0  0  0
   15.9972   14.3839   36.0303 C   0  0  0  0  0  0
   13.4519   12.3790   38.0721 C   0  0  0  0  0  0
   13.1754   11.1884   38.2523 O   0  0  0  0  0  0
   12.8693   13.3659   38.7797 N   0  0  0  0  0  0
   11.8490   13.1391   39.8227 C   0  0  2  0  0  0
   10.3698   13.3789   39.3507 C   0  0  0  0  0  0
   10.1023   13.5749   37.8257 C   0  0  0  0  0  0
    8.8946   12.8151   37.2684 C   0  0  0  0  0  0
    7.7904   12.9286   37.7973 O   0  0  0  0  0  0
    9.1287   12.0740   36.1747 N   0  0  0  0  0  0
    8.1389   11.3396   35.3888 C   0  0  0  0  0  0
    8.3386   11.5965   33.9043 C   0  0  0  0  0  0
    7.6364   12.6267   33.2708 C   0  0  0  0  0  0
    7.8281   12.8682   31.9128 C   0  0  0  0  0  0
    8.7121   12.0700   31.1899 C   0  0  0  0  0  0
    9.3901   11.0227   31.8060 C   0  0  0  0  0  0
    9.2039   10.7824   33.1639 C   0  0  0  0  0  0
   12.2122   13.8340   41.1609 C   0  0  0  0  0  0
   11.3916   14.1630   41.9903 O   0  0  0  0  0  0
   13.5652   14.0012   41.2928 O   0  0  0  0  0  0
   11.8916   12.0858   40.1019 H   0  0  0  0  0  0
   11.8244   18.9247   29.5056 H   0  0  0  0  0  0
   13.0030   18.3944   28.3111 H   0  0  0  0  0  0
   11.7923   17.2628   28.9318 H   0  0  0  0  0  0
   16.2630   14.8606   29.6373 H   0  0  0  0  0  0
   17.8490   14.1382   31.3818 H   0  0  0  0  0  0
   15.9923   16.7923   34.2004 H   0  0  0  0  0  0
   14.3740   16.3205   29.0329 H   0  0  0  0  0  0
   19.0156   15.0787   33.5243 H   0  0  0  0  0  0
   18.0568   15.7340   34.7975 H   0  0  0  0  0  0
   18.1669   12.1701   33.0001 H   0  0  0  0  0  0
   19.5794   13.0293   33.5472 H   0  0  0  0  0  0
   19.4607    9.8280   36.2676 H   0  0  0  0  0  0
   16.4803   11.2692   34.8051 H   0  0  0  0  0  0
   14.7362   10.7499   36.3271 H   0  0  0  0  0  0
   14.5380   14.9073   37.4726 H   0  0  0  0  0  0
   16.3372   15.4070   35.9927 H   0  0  0  0  0  0
   13.0588   14.3259   38.5357 H   0  0  0  0  0  0
    9.7646   12.5504   39.7249 H   0  0  0  0  0  0
    9.9321   14.2355   39.8626 H   0  0  0  0  0  0
    9.9593   14.6334   37.6119 H   0  0  0  0  0  0
   10.9686   13.3192   37.2198 H   0  0  0  0  0  0
   10.0845   11.9627   35.8726 H   0  0  0  0  0  0
    8.2390   10.2745   35.5999 H   0  0  0  0  0  0
    7.1131   11.5960   35.6748 H   0  0  0  0  0  0
    6.9578   13.2539   33.8327 H   0  0  0  0  0  0
    7.3022   13.6723   31.4200 H   0  0  0  0  0  0
    8.8677   12.2580   30.1391 H   0  0  0  0  0  0
   10.0608   10.4010   31.2296 H   0  0  0  0  0  0
    9.7400    9.9704   33.6363 H   0  0  0  0  0  0
   14.0211   13.6288   40.5344 H   0  0  0  0  0  0
  1 44  1  0  0  0
  1 45  1  0  0  0
  1 46  1  0  0  0
  1  2  1  0  0  0
  2  3  1  0  0  0
  2 11  2  0  0  0
  3  4  1  0  0  0
  3 50  1  0  0  0
  4  9  2  0  0  0
  4  5  1  0  0  0
  5  6  2  0  0  0
  5 47  1  0  0  0
  6  7  1  0  0  0
  6 48  1  0  0  0
  7  8  2  0  0  0
  7 13  1  0  0  0
  8  9  1  0  0  0
  8 49  1  0  0  0
  9 10  1  0  0  0
 10 12  2  0  0  0
 10 11  1  0  0  0
 13 14  1  0  0  0
 13 51  1  0  0  0
 13 52  1  0  0  0
 14 15  1  0  0  0
 14 18  1  0  0  0
 15 16  1  0  0  0
 15 53  1  0  0  0
 15 54  1  0  0  0
 16 17  3  0  0  0
 17 55  1  0  0  0
 18 23  1  0  0  0
 18 19  2  0  0  0
 19 20  1  0  0  0
 19 56  1  0  0  0
 20 21  2  0  0  0
 20 57  1  0  0  0
 21 22  1  0  0  0
 21 24  1  0  0  0
 22 23  2  0  0  0
 22 58  1  0  0  0
 23 59  1  0  0  0
 24 25  2  0  0  0
 24 26  1  0  0  0
 26 27  1  0  0  0
 26 60  1  0  0  0
 27 43  1  0  0  0
 27 28  1  0  0  0
 27 40  1  0  0  0
 28 29  1  0  0  0
 28 61  1  0  0  0
 28 62  1  0  0  0
 29 30  1  0  0  0
 29 63  1  0  0  0
 29 64  1  0  0  0
 30 31  2  0  0  0
 30 32  1  0  0  0
 32 33  1  0  0  0
 32 65  1  0  0  0
 33 34  1  0  0  0
 33 66  1  0  0  0
 33 67  1  0  0  0
 34 39  1  0  0  0
 34 35  2  0  0  0
 35 36  1  0  0  0
 35 68  1  0  0  0
 36 37  2  0  0  0
 36 69  1  0  0  0
 37 38  1  0  0  0
 37 70  1  0  0  0
 38 39  2  0  0  0
 38 71  1  0  0  0
 39 72  1  0  0  0
 40 41  2  0  0  0
 40 42  1  0  0  0
 42 73  1  0  0  0
M  END
> <s_m_entry_id>
41834

> <s_m_entry_name>
ligand_docking-pose.194

> <s_m_Source_Path>
/home/csk/Desktop/cluster/DUD-E-result/tysy

> <s_m_Source_File>
ligand_docking-pose.sdf

> <i_m_Source_File_Index>
194

> <i_lp_mmshare_version>
53161

> <i_f3d_flags>
0

> <r_lp_tautomer_probability>
0.116051

> <s_lp_Force_Field>
OPLS_2005

> <r_lp_Energy>
24.0652

> <b_lp_Chiralities_Consistent>
1

> <s_lp_Variant>
184075-2

> <s_i_glide_gridfile>
glide-grid_1syn

> <i_i_glide_lignum>
575

> <i_i_glide_rotatable_bonds>
16

> <r_i_docking_score>
-7.7351906054308

> <r_i_glide_ligand_efficiency>
-0.18417120489121

> <r_i_glide_ligand_efficiency_sa>
-0.640184014625087

> <r_i_glide_ligand_efficiency_ln>
-1.63269945535661

> <r_i_glide_gscore>
-7.7351906054308

> <r_i_glide_lipo>
-4.02281554050467

> <r_i_glide_hbond>
-0.155275072813408

> <r_i_glide_metal>
0

> <r_i_glide_rewards>
-0.557206664114204

> <r_i_glide_evdw>
-66.7269744873047

> <r_i_glide_ecoul>
-3.04558897018433

> <r_i_glide_erotb>
0.825650908371159

> <r_i_glide_esite>
-0.0323571664767952

> <r_i_glide_emodel>
-98.9383527729613

> <r_i_glide_energy>
-69.772563457489

> <r_i_glide_einternal>
10.7780065536499

> <i_i_glide_confnum>
18

> <i_i_glide_posenum>
237

> <r_i_glide_eff_state_penalty>
0

> <s_user_duplicate_titles>
184075

> <s_m_subgroup_title>
dock_pv

> <s_m_subgroupid>
dock_pv1

> <b_m_subgroup_collapsed>
0

$$$$
198782
                    3D
 Schrodinger Suite 2021-1.
 38 39  0  0  1  0            999 V2000
   15.7514   11.6572   35.8936 C   0  0  0  0  0  0
   15.5867   10.3473   36.1764 C   0  0  0  0  0  0
   14.6383    9.9583   37.2119 C   0  0  0  0  0  0
   14.4836    8.8066   37.6117 O   0  0  0  0  0  0
   13.9239   11.0065   37.7215 N   0  0  0  0  0  0
   14.0687   12.3505   37.4442 C   0  0  0  0  0  0
   13.0415   13.3973   38.2472 S   0  0  0  0  0  0
   15.0750   12.6721   36.5309 N   0  0  0  0  0  0
   15.4871   14.0498   36.2692 C   0  0  1  0  0  0
   16.9711   14.3645   36.0512 C   0  0  0  0  0  0
   16.9511   15.0875   34.7332 C   0  0  2  0  0  0
   15.5296   15.6192   34.5790 C   0  0  2  0  0  0
   14.7693   14.5914   35.1916 O   0  0  0  0  0  0
   15.1142   15.9059   33.1198 C   0  0  0  0  0  0
   13.9022   16.6334   33.0995 O   0  0  0  0  0  0
   13.9774   18.2497   33.2486 P   0  0  0  0  0  0
   15.2025   18.7693   33.9135 O   0  0  0  0  0  0
   13.7450   18.7609   31.7286 O   0  0  0  0  0  0
   12.5900   18.6281   33.9918 O   0  0  0  0  0  0
   17.3353   14.2206   33.6864 O   0  0  0  0  0  0
   18.9224   13.9204   33.4782 P   0  0  0  0  0  0
   19.8574   14.6280   34.3909 O   0  0  0  0  0  0
   18.9920   12.3157   33.5912 O   0  0  0  0  0  0
   19.1657   14.2266   31.9082 O   0  0  0  0  0  0
   16.2548    9.3849   35.5041 F   0  0  0  0  0  0
   13.2218   10.7932   38.4123 H   0  0  0  0  0  0
   17.6971   15.8688   34.7261 H   0  0  0  0  0  0
   15.3964   16.5192   35.1820 H   0  0  0  0  0  0
   16.4138   11.9908   35.1106 H   0  0  0  0  0  0
   15.2095   14.6134   37.1633 H   0  0  0  0  0  0
   17.6277   13.4941   36.0895 H   0  0  0  0  0  0
   17.3047   15.0713   36.8025 H   0  0  0  0  0  0
   14.9996   15.0052   32.5339 H   0  0  0  0  0  0
   15.8992   16.4731   32.6098 H   0  0  0  0  0  0
   14.3266   19.4853   31.4178 H   0  0  0  0  0  0
   12.5960   19.5461   34.3910 H   0  0  0  0  0  0
   19.9300   12.0019   33.4962 H   0  0  0  0  0  0
   19.7797   13.5780   31.4950 H   0  0  0  0  0  0
  1  8  1  0  0  0
  1  2  2  0  0  0
  1 29  1  0  0  0
  2  3  1  0  0  0
  2 25  1  0  0  0
  3  4  2  0  0  0
  3  5  1  0  0  0
  5 26  1  0  0  0
  5  6  1  0  0  0
  6  7  2  0  0  0
  6  8  1  0  0  0
  8  9  1  0  0  0
  9 13  1  0  0  0
  9 10  1  0  0  0
  9 30  1  0  0  0
 10 11  1  0  0  0
 10 31  1  0  0  0
 10 32  1  0  0  0
 11 27  1  0  0  0
 11 12  1  0  0  0
 11 20  1  0  0  0
 12 28  1  0  0  0
 12 13  1  0  0  0
 12 14  1  0  0  0
 14 15  1  0  0  0
 14 33  1  0  0  0
 14 34  1  0  0  0
 15 16  1  0  0  0
 16 17  2  0  0  0
 16 18  1  0  0  0
 16 19  1  0  0  0
 18 35  1  0  0  0
 19 36  1  0  0  0
 20 21  1  0  0  0
 21 22  2  0  0  0
 21 23  1  0  0  0
 21 24  1  0  0  0
 23 37  1  0  0  0
 24 38  1  0  0  0
M  END
> <s_m_entry_id>
41835

> <s_m_entry_name>
ligand_docking-pose.195

> <s_m_Source_Path>
/home/csk/Desktop/cluster/DUD-E-result/tysy

> <s_m_Source_File>
ligand_docking-pose.sdf

> <i_m_Source_File_Index>
195

> <i_lp_mmshare_version>
53161

> <i_f3d_flags>
0

> <r_lp_tautomer_probability>
0.999156019680456

> <s_lp_Force_Field>
OPLS_2005

> <r_lp_Energy>
10.443248

> <b_lp_Chiralities_Consistent>
1

> <s_lp_Variant>
198782-2

> <s_i_glide_gridfile>
glide-grid_1syn

> <i_i_glide_lignum>
167

> <i_i_glide_rotatable_bonds>
10

> <r_i_docking_score>
-7.72498809886739

> <r_i_glide_ligand_efficiency>
-0.308999523954696

> <r_i_glide_ligand_efficiency_sa>
-0.903520088173422

> <r_i_glide_ligand_efficiency_ln>
-1.83105367864406

> <r_i_glide_gscore>
-7.72498809886739

> <r_i_glide_lipo>
-1.48970510526859

> <r_i_glide_hbond>
0

> <r_i_glide_metal>
0

> <r_i_glide_rewards>
-1.53621275842134

> <r_i_glide_evdw>
-36.5127716064453

> <r_i_glide_ecoul>
-23.1310768127441

> <r_i_glide_erotb>
0.666694980237179

> <r_i_glide_esite>
-0.0704651131807556

> <r_i_glide_emodel>
-86.5256799776198

> <r_i_glide_energy>
-59.6438484191895

> <r_i_glide_einternal>
7.57917594909668

> <i_i_glide_confnum>
109

> <i_i_glide_posenum>
303

> <r_i_glide_eff_state_penalty>
0

> <s_user_duplicate_titles>
198782

> <s_m_subgroup_title>
dock_pv

> <s_m_subgroupid>
dock_pv1

> <b_m_subgroup_collapsed>
0

$$$$
207257
                    3D
 Schrodinger Suite 2021-1.
 69 72  0  0  1  0            999 V2000
   11.6173   10.4163   40.4038 C   0  0  0  0  0  0
   12.1282    9.4708   39.3318 C   0  0  0  0  0  0
   12.8040    8.3084   39.7251 C   0  0  0  0  0  0
   13.3381    7.4526   38.7675 C   0  0  0  0  0  0
   13.1477    7.7379   37.4141 C   0  0  0  0  0  0
   12.4335    8.8536   37.0016 C   0  0  0  0  0  0
   11.9660    9.7542   37.9587 C   0  0  0  0  0  0
   11.3869   11.0642   37.4415 C   0  0  0  0  0  0
   12.1606   12.2796   37.8021 N   0  0  0  0  0  0
   11.3833   13.5233   37.9539 C   0  0  0  0  0  0
   10.0967   13.4283   38.6764 C   0  0  0  0  0  0
    8.9904   13.3953   39.1911 C   0  0  0  0  0  0
   13.4721   12.4278   37.2399 C   0  0  0  0  0  0
   14.4190   11.3952   37.3104 C   0  0  0  0  0  0
   15.6432   11.4668   36.6598 C   0  0  0  0  0  0
   16.0125   12.6111   35.9508 C   0  0  0  0  0  0
   15.1454   13.7171   35.9943 C   0  0  0  0  0  0
   13.8972   13.6153   36.6117 C   0  0  0  0  0  0
   15.4896   14.9086   35.4559 F   0  0  0  0  0  0
   17.3296   12.6085   35.2049 C   0  0  0  0  0  0
   18.2051   11.7913   35.5014 O   0  0  0  0  0  0
   17.4748   13.4873   34.1975 N   0  0  0  0  0  0
   18.7052   13.6499   33.4077 C   0  0  1  0  0  0
   18.4704   14.3761   32.0552 C   0  0  0  0  0  0
   17.2945   13.8356   31.2045 C   0  0  0  0  0  0
   16.4967   14.9115   30.4330 C   0  0  0  0  0  0
   15.7909   16.1784   31.6036 S   0  0  2  0  0  0
   15.3917   15.4299   32.8742 O   0  0  0  0  0  0
   14.2161   16.5402   30.7367 C   0  0  0  0  0  0
   13.8562   17.8283   30.4280 N   0  0  0  0  0  0
   12.6525   17.8434   29.8550 N   0  0  0  0  0  0
   12.2734   16.5139   29.8266 N   0  0  0  0  0  0
   13.2633   15.7111   30.3904 N   0  0  0  0  0  0
   19.6977   14.4550   34.2675 C   0  0  0  0  0  0
   19.3913   15.5098   34.7818 O   0  0  0  0  0  0
   20.9048   13.8280   34.3909 O   0  0  0  0  0  0
   13.8029    6.8477   36.4019 C   0  0  0  0  0  0
   14.4612    5.8152   36.9753 N   0  0  0  0  0  0
   14.5885    5.5524   38.3099 C   0  0  0  0  0  0
   14.0796    6.3338   39.1909 N   0  0  0  0  0  0
   15.3744    4.3266   38.7132 C   0  0  0  0  0  0
   13.7918    7.0282   35.1912 O   0  0  0  0  0  0
   19.0992   12.6538   33.1922 H   0  0  0  0  0  0
   14.3864   18.6720   30.6071 H   0  0  0  0  0  0
   10.5455   10.5823   40.2938 H   0  0  0  0  0  0
   11.7956   10.0185   41.4016 H   0  0  0  0  0  0
   12.1156   11.3830   40.3283 H   0  0  0  0  0  0
   12.9537    8.0776   40.7693 H   0  0  0  0  0  0
   12.3201    9.0714   35.9462 H   0  0  0  0  0  0
   11.3255   11.0309   36.3521 H   0  0  0  0  0  0
   10.3494   11.0943   37.7701 H   0  0  0  0  0  0
   11.9873   14.2289   38.5213 H   0  0  0  0  0  0
   11.1740   13.9690   36.9806 H   0  0  0  0  0  0
    8.0026   13.3793   39.5939 H   0  0  0  0  0  0
   14.2485   10.5042   37.8830 H   0  0  0  0  0  0
   16.3066   10.6148   36.7166 H   0  0  0  0  0  0
   13.2628   14.4847   36.5595 H   0  0  0  0  0  0
   16.7375   14.1574   34.0185 H   0  0  0  0  0  0
   18.3253   15.4379   32.2463 H   0  0  0  0  0  0
   19.3832   14.3289   31.4560 H   0  0  0  0  0  0
   17.6770   13.0779   30.5255 H   0  0  0  0  0  0
   16.5924   13.2873   31.8262 H   0  0  0  0  0  0
   17.1294   15.4204   29.7056 H   0  0  0  0  0  0
   15.6921   14.4318   29.8738 H   0  0  0  0  0  0
   20.9915   12.9928   33.8893 H   0  0  0  0  0  0
   15.2089    4.0733   39.7612 H   0  0  0  0  0  0
   15.0821    3.4618   38.1145 H   0  0  0  0  0  0
   16.4423    4.4929   38.5682 H   0  0  0  0  0  0
   14.8220    5.1472   36.3128 H   0  0  0  0  0  0
  1 45  1  0  0  0
  1 46  1  0  0  0
  1 47  1  0  0  0
  1  2  1  0  0  0
  2  7  1  0  0  0
  2  3  2  0  0  0
  3 48  1  0  0  0
  3  4  1  0  0  0
  4  5  2  0  0  0
  4 40  1  0  0  0
  5 37  1  0  0  0
  5  6  1  0  0  0
  6 49  1  0  0  0
  6  7  2  0  0  0
  7  8  1  0  0  0
  8  9  1  0  0  0
  8 50  1  0  0  0
  8 51  1  0  0  0
  9 10  1  0  0  0
  9 13  1  0  0  0
 10 11  1  0  0  0
 10 52  1  0  0  0
 10 53  1  0  0  0
 11 12  3  0  0  0
 12 54  1  0  0  0
 13 18  1  0  0  0
 13 14  2  0  0  0
 14 15  1  0  0  0
 14 55  1  0  0  0
 15 16  2  0  0  0
 15 56  1  0  0  0
 16 17  1  0  0  0
 16 20  1  0  0  0
 17 18  2  0  0  0
 17 19  1  0  0  0
 18 57  1  0  0  0
 20 21  2  0  0  0
 20 22  1  0  0  0
 22 23  1  0  0  0
 22 58  1  0  0  0
 23 43  1  0  0  0
 23 24  1  0  0  0
 23 34  1  0  0  0
 24 25  1  0  0  0
 24 59  1  0  0  0
 24 60  1  0  0  0
 25 26  1  0  0  0
 25 61  1  0  0  0
 25 62  1  0  0  0
 26 27  1  0  0  0
 26 63  1  0  0  0
 26 64  1  0  0  0
 27 28  2  0  0  0
 27 29  1  0  0  0
 29 30  1  0  0  0
 29 33  2  0  0  0
 30 44  1  0  0  0
 30 31  1  0  0  0
 31 32  2  0  0  0
 32 33  1  0  0  0
 34 35  2  0  0  0
 34 36  1  0  0  0
 36 65  1  0  0  0
 37 42  2  0  0  0
 37 38  1  0  0  0
 38 39  1  0  0  0
 38 69  1  0  0  0
 39 40  2  0  0  0
 39 41  1  0  0  0
 41 66  1  0  0  0
 41 67  1  0  0  0
 41 68  1  0  0  0
M  END
> <s_m_entry_id>
41836

> <s_m_entry_name>
ligand_docking-pose.196

> <s_m_Source_Path>
/home/csk/Desktop/cluster/DUD-E-result/tysy

> <s_m_Source_File>
ligand_docking-pose.sdf

> <i_m_Source_File_Index>
196

> <i_lp_mmshare_version>
53161

> <i_f3d_flags>
0

> <r_lp_tautomer_probability>
0.2651814

> <s_lp_Force_Field>
OPLS_2005

> <r_lp_Energy>
28.385148

> <b_lp_Chiralities_Consistent>
1

> <s_lp_Variant>
207257-1

> <s_i_glide_gridfile>
glide-grid_1syn

> <i_i_glide_lignum>
289

> <i_i_glide_rotatable_bonds>
15

> <r_i_docking_score>
-7.69604480353688

> <r_i_glide_ligand_efficiency>
-0.183239161988973

> <r_i_glide_ligand_efficiency_sa>
-0.636944208666773

> <r_i_glide_ligand_efficiency_ln>
-1.62443678508875

> <r_i_glide_gscore>
-7.69604480353688

> <r_i_glide_lipo>
-1.56144423496358

> <r_i_glide_hbond>
-0.594103788896427

> <r_i_glide_metal>
0

> <r_i_glide_rewards>
-1.13405265714153

> <r_i_glide_evdw>
-58.2846450805664

> <r_i_glide_ecoul>
-13.7044801712036

> <r_i_glide_erotb>
0.658875244142232

> <r_i_glide_esite>
-0.0954150869687082

> <r_i_glide_emodel>
-103.141753545944

> <r_i_glide_energy>
-71.98912525177

> <r_i_glide_einternal>
9.25624084472656

> <i_i_glide_confnum>
9

> <i_i_glide_posenum>
76

> <r_i_glide_eff_state_penalty>
0

> <s_user_duplicate_titles>
207257

> <s_m_subgroup_title>
dock_pv

> <s_m_subgroupid>
dock_pv1

> <b_m_subgroup_collapsed>
0

$$$$
54785
                    3D
 Schrodinger Suite 2021-1.
 58 60  0  0  1  0            999 V2000
   14.6499   13.6895   36.7457 C   0  0  0  0  0  0
   15.7916   14.0489   36.0380 C   0  0  0  0  0  0
   16.6818   13.0669   35.5909 C   0  0  0  0  0  0
   16.3804   11.7231   35.8005 C   0  0  0  0  0  0
   15.2363   11.3613   36.5044 C   0  0  0  0  0  0
   14.3719   12.3388   37.0164 C   0  0  0  0  0  0
   13.2210   11.9255   37.9088 C   0  0  0  0  0  0
   13.1007   10.7563   38.2827 O   0  0  0  0  0  0
   12.3953   12.9042   38.3199 N   0  0  0  0  0  0
   11.3086   12.7685   39.2980 C   0  0  1  0  0  0
   11.8024   13.2873   40.6886 C   0  0  0  0  0  0
   13.0889   12.5941   41.2074 C   0  0  0  0  0  0
   13.5040   12.9906   42.6252 C   0  0  0  0  0  0
   13.1321   14.0124   43.1967 O   0  0  0  0  0  0
   14.3189   12.0521   43.1909 O   0  0  0  0  0  0
   10.0271   13.4286   38.7275 C   0  0  0  0  0  0
    9.6608   13.2841   37.5799 O   0  0  0  0  0  0
    9.3920   14.2255   39.6364 O   0  0  0  0  0  0
   17.9121   13.3606   34.9837 N   0  0  0  0  0  0
   18.4113   14.7103   34.7467 C   0  0  0  0  0  0
   18.2557   15.1612   33.2918 C   0  0  0  0  0  0
   16.8167   15.2781   32.7419 C   0  0  2  0  0  0
   16.8281   15.1490   31.1953 C   0  0  0  0  0  0
   15.5154   15.4286   30.6248 N   0  0  0  0  0  0
   14.8509   16.5508   31.1391 C   0  0  0  0  0  0
   15.1715   17.0864   32.4058 C   0  0  0  0  0  0
   14.3478   18.1292   32.8806 C   0  0  0  0  0  0
   13.3468   18.6273   32.1057 N   0  0  0  0  0  0
   13.1667   18.0847   30.8816 C   0  0  0  0  0  0
   13.8589   17.0460   30.3648 N   0  0  0  0  0  0
   12.1919   18.6453   30.0763 N   0  0  0  0  0  0
   14.5921   18.6280   34.1344 O   0  0  0  0  0  0
   16.2352   16.5559   33.1727 N   0  0  0  0  0  0
   14.0213   14.4880   37.1106 H   0  0  0  0  0  0
   15.9747   15.0987   35.8802 H   0  0  0  0  0  0
   17.0541   10.9543   35.4513 H   0  0  0  0  0  0
   15.0510   10.3103   36.6788 H   0  0  0  0  0  0
   12.4860   13.8157   37.8987 H   0  0  0  0  0  0
   11.0524   11.7127   39.4040 H   0  0  0  0  0  0
   11.9896   14.3606   40.6292 H   0  0  0  0  0  0
   11.0065   13.1634   41.4227 H   0  0  0  0  0  0
   12.9529   11.5126   41.1772 H   0  0  0  0  0  0
   13.9307   12.8173   40.5526 H   0  0  0  0  0  0
   14.5882   12.2238   44.1051 H   0  0  0  0  0  0
    8.7056   14.7391   39.1897 H   0  0  0  0  0  0
   18.4318   12.6026   34.5615 H   0  0  0  0  0  0
   17.9422   15.4259   35.4186 H   0  0  0  0  0  0
   19.4700   14.7263   35.0064 H   0  0  0  0  0  0
   18.7668   16.1160   33.1913 H   0  0  0  0  0  0
   18.8232   14.4637   32.6715 H   0  0  0  0  0  0
   16.1967   14.4874   33.1518 H   0  0  0  0  0  0
   17.5629   15.8277   30.7736 H   0  0  0  0  0  0
   17.1296   14.1426   30.9050 H   0  0  0  0  0  0
   15.3193   15.0777   29.6984 H   0  0  0  0  0  0
   12.0080   18.2299   29.1780 H   0  0  0  0  0  0
   11.5480   19.3182   30.4693 H   0  0  0  0  0  0
   13.9538   19.3196   34.3572 H   0  0  0  0  0  0
   16.3181   16.7768   34.1547 H   0  0  0  0  0  0
  1  6  1  0  0  0
  1  2  2  0  0  0
  1 34  1  0  0  0
  2  3  1  0  0  0
  2 35  1  0  0  0
  3  4  2  0  0  0
  3 19  1  0  0  0
  4  5  1  0  0  0
  4 36  1  0  0  0
  5  6  2  0  0  0
  5 37  1  0  0  0
  6  7  1  0  0  0
  7  8  2  0  0  0
  7  9  1  0  0  0
  9 10  1  0  0  0
  9 38  1  0  0  0
 10 11  1  0  0  0
 10 16  1  0  0  0
 10 39  1  0  0  0
 11 12  1  0  0  0
 11 40  1  0  0  0
 11 41  1  0  0  0
 12 13  1  0  0  0
 12 42  1  0  0  0
 12 43  1  0  0  0
 13 14  2  0  0  0
 13 15  1  0  0  0
 15 44  1  0  0  0
 16 17  2  0  0  0
 16 18  1  0  0  0
 18 45  1  0  0  0
 19 20  1  0  0  0
 19 46  1  0  0  0
 20 21  1  0  0  0
 20 47  1  0  0  0
 20 48  1  0  0  0
 21 22  1  0  0  0
 21 49  1  0  0  0
 21 50  1  0  0  0
 22 33  1  0  0  0
 22 23  1  0  0  0
 22 51  1  0  0  0
 23 24  1  0  0  0
 23 52  1  0  0  0
 23 53  1  0  0  0
 24 25  1  0  0  0
 24 54  1  0  0  0
 25 30  2  0  0  0
 25 26  1  0  0  0
 26 27  2  0  0  0
 26 33  1  0  0  0
 27 28  1  0  0  0
 27 32  1  0  0  0
 28 29  2  0  0  0
 29 30  1  0  0  0
 29 31  1  0  0  0
 31 55  1  0  0  0
 31 56  1  0  0  0
 32 57  1  0  0  0
 33 58  1  0  0  0
M  END
> <s_m_entry_id>
41838

> <s_m_entry_name>
ligand_docking-pose.198

> <s_m_Source_Path>
/home/csk/Desktop/cluster/DUD-E-result/tysy

> <s_m_Source_File>
ligand_docking-pose.sdf

> <i_m_Source_File_Index>
198

> <i_lp_mmshare_version>
53161

> <i_f3d_flags>
0

> <r_lp_tautomer_probability>
1

> <s_lp_Force_Field>
OPLS_2005

> <r_lp_Energy>
13.818054

> <b_lp_Chiralities_Consistent>
1

> <s_lp_Variant>
54785-2

> <s_i_glide_gridfile>
glide-grid_1syn

> <i_i_glide_lignum>
77

> <i_i_glide_rotatable_bonds>
14

> <r_i_docking_score>
-7.68547126151764

> <r_i_glide_ligand_efficiency>
-0.232893068530838

> <r_i_glide_ligand_efficiency_sa>
-0.747012511660087

> <r_i_glide_ligand_efficiency_ln>
-1.70920901532102

> <r_i_glide_gscore>
-7.68547126151764

> <r_i_glide_lipo>
-3.07680219738999

> <r_i_glide_hbond>
-0.320119640090144

> <r_i_glide_metal>
0

> <r_i_glide_rewards>
-0.675829966522244

> <r_i_glide_evdw>
-54.7085838317871

> <r_i_glide_ecoul>
-12.5874538421631

> <r_i_glide_erotb>
1.04845368541203

> <r_i_glide_esite>
-0.0376258750134723

> <r_i_glide_emodel>
-95.6450334975035

> <r_i_glide_energy>
-67.2960376739502

> <r_i_glide_einternal>
7.79863691329956

> <i_i_glide_confnum>
24

> <i_i_glide_posenum>
266

> <r_i_glide_eff_state_penalty>
0

> <s_user_duplicate_titles>
54785

> <s_m_subgroup_title>
dock_pv

> <s_m_subgroupid>
dock_pv1

> <b_m_subgroup_collapsed>
0

$$$$
268460
                    3D
 Schrodinger Suite 2021-1.
 60 63  0  0  1  0            999 V2000
   18.3874   14.0883   31.3491 C   0  0  0  0  0  0
   17.2691   15.0294   31.7564 C   0  0  0  0  0  0
   16.2362   15.2621   30.8391 C   0  0  0  0  0  0
   15.2200   16.1567   31.1469 C   0  0  0  0  0  0
   15.1915   16.7937   32.3879 C   0  0  0  0  0  0
   16.2144   16.5625   33.3094 C   0  0  0  0  0  0
   17.2740   15.7022   32.9982 C   0  0  0  0  0  0
   18.4417   15.6194   33.9947 C   0  0  0  0  0  0
   18.8364   14.2624   34.3910 N   0  0  0  0  0  0
   20.2778   13.9886   34.3791 C   0  0  0  0  0  0
   17.9198   13.3202   34.9291 C   0  0  0  0  0  0
   18.2391   11.9566   34.9964 C   0  0  0  0  0  0
   17.3765   11.0427   35.5909 C   0  0  0  0  0  0
   16.1438   11.4528   36.1116 C   0  0  0  0  0  0
   15.7945   12.8094   36.0057 C   0  0  0  0  0  0
   16.6745   13.7218   35.4298 C   0  0  0  0  0  0
   14.6245   13.2804   36.5022 F   0  0  0  0  0  0
   15.2903   10.4456   36.8459 C   0  0  0  0  0  0
   15.8166    9.5003   37.4324 O   0  0  0  0  0  0
   13.9591   10.6387   36.8264 N   0  0  0  0  0  0
   12.9584    9.8656   37.5760 C   0  0  0  0  0  0
   13.0746    8.3457   37.4744 C   0  0  0  0  0  0
   12.5102    7.6678   36.3936 C   0  0  0  0  0  0
   12.6131    6.2809   36.3124 C   0  0  0  0  0  0
   13.2808    5.5662   37.3005 C   0  0  0  0  0  0
   13.8521    6.2229   38.3960 C   0  0  0  0  0  0
   13.7171    7.6178   38.4835 C   0  0  0  0  0  0
   14.5957    5.4603   39.4261 N   0  3  0  0  0  0
   15.0014    6.0645   40.4114 O   0  5  0  0  0  0
   14.7887    4.2599   39.2562 O   0  0  0  0  0  0
   14.0600   17.7548   32.7155 C   0  0  0  0  0  0
   13.1682   18.0090   31.6675 N   0  0  0  0  0  0
   13.2565   17.4144   30.5408 C   0  0  0  0  0  0
   14.2210   16.4753   30.2216 N   0  0  0  0  0  0
   12.2314   17.7341   29.4807 C   0  0  0  0  0  0
   13.9891   18.2283   33.8477 O   0  0  0  0  0  0
   18.1905   13.6170   30.3911 H   0  0  0  0  0  0
   19.3418   14.6135   31.3006 H   0  0  0  0  0  0
   18.4904   13.2765   32.0654 H   0  0  0  0  0  0
   16.2424   14.7679   29.8787 H   0  0  0  0  0  0
   16.1926   17.0776   34.2590 H   0  0  0  0  0  0
   18.2266   16.2197   34.8736 H   0  0  0  0  0  0
   19.3103   16.1292   33.5785 H   0  0  0  0  0  0
   20.5748   13.0280   34.7910 H   0  0  0  0  0  0
   20.6498   14.0184   33.3546 H   0  0  0  0  0  0
   20.8088   14.7545   34.9410 H   0  0  0  0  0  0
   19.1633   11.5788   34.5837 H   0  0  0  0  0  0
   17.6870   10.0099   35.6536 H   0  0  0  0  0  0
   16.3841   14.7591   35.4176 H   0  0  0  0  0  0
   13.6378   11.4908   36.3910 H   0  0  0  0  0  0
   11.9707   10.1651   37.2210 H   0  0  0  0  0  0
   12.9858   10.1749   38.6232 H   0  0  0  0  0  0
   11.9966    8.2109   35.6128 H   0  0  0  0  0  0
   12.1923    5.7540   35.4699 H   0  0  0  0  0  0
   13.3654    4.4960   37.1915 H   0  0  0  0  0  0
   14.1553    8.1484   39.3169 H   0  0  0  0  0  0
   11.6325   18.6091   29.7412 H   0  0  0  0  0  0
   12.7114   17.9443   28.5263 H   0  0  0  0  0  0
   11.5420   16.9015   29.3469 H   0  0  0  0  0  0
   14.2300   16.0444   29.3138 H   0  0  0  0  0  0
  1 37  1  0  0  0
  1 38  1  0  0  0
  1 39  1  0  0  0
  1  2  1  0  0  0
  2  7  1  0  0  0
  2  3  2  0  0  0
  3 40  1  0  0  0
  3  4  1  0  0  0
  4  5  2  0  0  0
  4 34  1  0  0  0
  5 31  1  0  0  0
  5  6  1  0  0  0
  6 41  1  0  0  0
  6  7  2  0  0  0
  7  8  1  0  0  0
  8  9  1  0  0  0
  8 42  1  0  0  0
  8 43  1  0  0  0
  9 10  1  0  0  0
  9 11  1  0  0  0
 10 44  1  0  0  0
 10 45  1  0  0  0
 10 46  1  0  0  0
 11 16  1  0  0  0
 11 12  2  0  0  0
 12 13  1  0  0  0
 12 47  1  0  0  0
 13 14  2  0  0  0
 13 48  1  0  0  0
 14 15  1  0  0  0
 14 18  1  0  0  0
 15 16  2  0  0  0
 15 17  1  0  0  0
 16 49  1  0  0  0
 18 19  2  0  0  0
 18 20  1  0  0  0
 20 21  1  0  0  0
 20 50  1  0  0  0
 21 22  1  0  0  0
 21 51  1  0  0  0
 21 52  1  0  0  0
 22 27  1  0  0  0
 22 23  2  0  0  0
 23 24  1  0  0  0
 23 53  1  0  0  0
 24 25  2  0  0  0
 24 54  1  0  0  0
 25 26  1  0  0  0
 25 55  1  0  0  0
 26 27  2  0  0  0
 26 28  1  0  0  0
 27 56  1  0  0  0
 28 29  1  0  0  0
 28 30  2  0  0  0
 31 36  2  0  0  0
 31 32  1  0  0  0
 32 33  2  0  0  0
 33 34  1  0  0  0
 33 35  1  0  0  0
 34 60  1  0  0  0
 35 57  1  0  0  0
 35 58  1  0  0  0
 35 59  1  0  0  0
M  CHG  2  28   1  29  -1
M  END
> <s_m_entry_id>
41844

> <s_m_entry_name>
ligand_docking-pose.204

> <s_m_Source_Path>
/home/csk/Desktop/cluster/DUD-E-result/tysy

> <s_m_Source_File>
ligand_docking-pose.sdf

> <i_m_Source_File_Index>
204

> <i_lp_mmshare_version>
53161

> <i_f3d_flags>
0

> <r_lp_tautomer_probability>
0.116051

> <s_lp_Force_Field>
OPLS_2005

> <r_lp_Energy>
32.181212

> <b_lp_Chiralities_Consistent>
1

> <s_lp_Variant>
268460-2

> <s_i_glide_gridfile>
glide-grid_1syn

> <i_i_glide_lignum>
176

> <i_i_glide_rotatable_bonds>
8

> <r_i_docking_score>
-7.65262235595662

> <r_i_glide_ligand_efficiency>
-0.212572843221017

> <r_i_glide_ligand_efficiency_sa>
-0.701900062568058

> <r_i_glide_ligand_efficiency_ln>
-1.66959544810658

> <r_i_glide_gscore>
-7.65262235595662

> <r_i_glide_lipo>
-3.39085233091201

> <r_i_glide_hbond>
-0.32

> <r_i_glide_metal>
0

> <r_i_glide_rewards>
-0.858940123345377

> <r_i_glide_evdw>
-55.8361587524414

> <r_i_glide_ecoul>
-5.75702714920044

> <r_i_glide_erotb>
0.594333813864905

> <r_i_glide_esite>
-0.0218017055620028

> <r_i_glide_emodel>
-86.8029331620921

> <r_i_glide_energy>
-61.5931859016418

> <r_i_glide_einternal>
4.7853569984436

> <i_i_glide_confnum>
23

> <i_i_glide_posenum>
31

> <r_i_glide_eff_state_penalty>
0

> <s_user_duplicate_titles>
268460

> <s_m_subgroup_title>
dock_pv

> <s_m_subgroupid>
dock_pv1

> <b_m_subgroup_collapsed>
0

$$$$
39571
                    3D
 Schrodinger Suite 2021-1.
 34 35  0  0  1  0            999 V2000
   14.7729   14.6338   29.1836 C   0  0  0  0  0  0
   15.4829   15.3742   30.3347 C   0  0  0  0  0  0
   14.6622   16.4720   31.0261 C   0  0  0  0  0  0
   14.7518   16.7485   32.4129 C   0  0  0  0  0  0
   13.9262   17.8015   32.8623 C   0  0  0  0  0  0
   13.0927   18.4965   32.0523 N   0  0  0  0  0  0
   13.0790   18.1365   30.7535 C   0  0  0  0  0  0
   13.8371   17.1687   30.1956 N   0  0  0  0  0  0
   12.1941   18.8078   29.9223 N   0  0  0  0  0  0
   13.9357   18.2280   34.1848 N   0  0  0  0  0  0
   15.6591   15.9944   33.3424 C   0  0  0  0  0  0
   15.1825   15.4283   34.5335 C   0  0  0  0  0  0
   16.0304   14.7150   35.3816 C   0  0  0  0  0  0
   17.3752   14.5570   35.0515 C   0  0  0  0  0  0
   17.8807   15.1177   33.8706 C   0  0  0  0  0  0
   17.0142   15.8291   33.0415 C   0  0  0  0  0  0
   19.1905   15.0220   33.4482 O   0  0  0  0  0  0
   20.1163   14.2290   34.1791 C   0  0  0  0  0  0
   15.3783   13.8021   28.8220 H   0  0  0  0  0  0
   13.8135   14.2283   29.5080 H   0  0  0  0  0  0
   14.5918   15.2986   28.3379 H   0  0  0  0  0  0
   16.4034   15.8229   29.9604 H   0  0  0  0  0  0
   15.7869   14.6278   31.0655 H   0  0  0  0  0  0
   12.1094   18.5132   28.9642 H   0  0  0  0  0  0
   11.5058   19.4262   30.3324 H   0  0  0  0  0  0
   14.6222   17.8432   34.8146 H   0  0  0  0  0  0
   13.4587   19.1050   34.3932 H   0  0  0  0  0  0
   14.1392   15.5262   34.7954 H   0  0  0  0  0  0
   15.6456   14.2846   36.2942 H   0  0  0  0  0  0
   18.0121   13.9958   35.7169 H   0  0  0  0  0  0
   17.4079   16.2455   32.1290 H   0  0  0  0  0  0
   21.0606   14.2099   33.6362 H   0  0  0  0  0  0
   20.3122   14.6591   35.1610 H   0  0  0  0  0  0
   19.7787   13.1980   34.2902 H   0  0  0  0  0  0
  1  2  1  0  0  0
  1 19  1  0  0  0
  1 20  1  0  0  0
  1 21  1  0  0  0
  2  3  1  0  0  0
  2 22  1  0  0  0
  2 23  1  0  0  0
  3  8  1  0  0  0
  3  4  2  0  0  0
  4  5  1  0  0  0
  4 11  1  0  0  0
  5  6  2  0  0  0
  5 10  1  0  0  0
  6  7  1  0  0  0
  7  8  2  0  0  0
  7  9  1  0  0  0
  9 24  1  0  0  0
  9 25  1  0  0  0
 10 26  1  0  0  0
 10 27  1  0  0  0
 11 16  1  0  0  0
 11 12  2  0  0  0
 12 13  1  0  0  0
 12 28  1  0  0  0
 13 14  2  0  0  0
 13 29  1  0  0  0
 14 15  1  0  0  0
 14 30  1  0  0  0
 15 16  2  0  0  0
 15 17  1  0  0  0
 16 31  1  0  0  0
 17 18  1  0  0  0
 18 32  1  0  0  0
 18 33  1  0  0  0
 18 34  1  0  0  0
M  END
> <s_m_entry_id>
41845

> <s_m_entry_name>
ligand_docking-pose.205

> <s_m_Source_Path>
/home/csk/Desktop/cluster/DUD-E-result/tysy

> <s_m_Source_File>
ligand_docking-pose.sdf

> <i_m_Source_File_Index>
205

> <i_lp_mmshare_version>
53161

> <i_f3d_flags>
0

> <r_lp_tautomer_probability>
0.999999624730965

> <s_lp_Force_Field>
OPLS_2005

> <r_lp_Energy>
9.043716

> <b_lp_Chiralities_Consistent>
1

> <s_lp_Variant>
39571-1

> <s_i_glide_gridfile>
glide-grid_1syn

> <i_i_glide_lignum>
728

> <i_i_glide_rotatable_bonds>
3

> <r_i_docking_score>
-7.64704178311831

> <r_i_glide_ligand_efficiency>
-0.424835654617684

> <r_i_glide_ligand_efficiency_sa>
-1.1133843847197

> <r_i_glide_ligand_efficiency_ln>
-1.96563265903762

> <r_i_glide_gscore>
-7.64704178311831

> <r_i_glide_lipo>
-3.0805841349231

> <r_i_glide_hbond>
-0.36381852179796

> <r_i_glide_metal>
0

> <r_i_glide_rewards>
-2.04714289475893

> <r_i_glide_evdw>
-36.3735198974609

> <r_i_glide_ecoul>
-3.60317063331604

> <r_i_glide_erotb>
0.291292212668018

> <r_i_glide_esite>
-0.0876368544358806

> <r_i_glide_emodel>
-57.4522019994334

> <r_i_glide_energy>
-39.976690530777

> <r_i_glide_einternal>
4.21079063415527

> <i_i_glide_confnum>
2

> <i_i_glide_posenum>
222

> <r_i_glide_eff_state_penalty>
0

> <s_user_duplicate_titles>
39571

> <s_m_subgroup_title>
dock_pv

> <s_m_subgroupid>
dock_pv1

> <b_m_subgroup_collapsed>
0

$$$$
120505
                    3D
 Schrodinger Suite 2021-1.
 59 61  0  0  1  0            999 V2000
   13.4791   17.8037   28.7013 C   0  0  0  0  0  0
   14.1711   17.2718   29.9342 C   0  0  0  0  0  0
   15.0309   16.3218   29.8637 N   0  0  0  0  0  0
   15.6694   15.8785   31.0375 C   0  0  0  0  0  0
   16.6189   14.8646   30.9439 C   0  0  0  0  0  0
   17.2907   14.4282   32.0899 C   0  0  0  0  0  0
   17.0012   14.9926   33.3422 C   0  0  0  0  0  0
   16.0479   16.0148   33.4358 C   0  0  0  0  0  0
   15.3923   16.4503   32.2843 C   0  0  0  0  0  0
   14.3783   17.5664   32.3429 C   0  0  0  0  0  0
   13.8567   17.8543   31.1284 N   0  0  0  0  0  0
   14.0492   18.1898   33.3459 O   0  0  0  0  0  0
   17.7505   14.5304   34.5910 C   0  0  0  0  0  0
   17.5504   13.0951   34.8798 N   0  0  0  0  0  0
   18.7833   12.3008   34.6966 C   0  0  0  0  0  0
   18.6420   10.8711   34.3855 C   0  0  0  0  0  0
   18.5924    9.6748   34.1598 C   0  0  0  0  0  0
   16.4689   12.7152   35.7411 C   0  0  0  0  0  0
   15.4097   13.5981   35.9907 C   0  0  0  0  0  0
   14.3590   13.2772   36.8410 C   0  0  0  0  0  0
   14.2941   12.0149   37.4584 C   0  0  0  0  0  0
   15.3204   11.1030   37.1895 C   0  0  0  0  0  0
   16.3879   11.4657   36.3785 C   0  0  0  0  0  0
   15.3358    9.8645   37.7409 F   0  0  0  0  0  0
   13.2230   11.6745   38.4672 C   0  0  0  0  0  0
   13.4562   10.9216   39.4135 O   0  0  0  0  0  0
   12.0566   12.3194   38.3122 N   0  0  0  0  0  0
   10.9309   12.4173   39.2468 C   0  0  1  0  0  0
   11.4378   12.7416   40.6919 C   0  0  0  0  0  0
   12.3830   13.9547   40.8562 C   0  0  0  0  0  0
   13.2024   13.8683   42.1420 C   0  0  0  0  0  0
   12.9923   14.5648   43.1300 O   0  0  0  0  0  0
   14.1918   12.9365   42.0789 O   0  0  0  0  0  0
    9.9153   13.4368   38.6668 C   0  0  0  0  0  0
    9.9369   13.8402   37.5228 O   0  0  0  0  0  0
    8.9946   13.8277   39.5916 O   0  0  0  0  0  0
   13.4181   14.2265   37.0515 F   0  0  0  0  0  0
   10.4245   11.4511   39.2559 H   0  0  0  0  0  0
   13.7011   18.8592   28.5591 H   0  0  0  0  0  0
   13.7894   17.2799   27.7990 H   0  0  0  0  0  0
   12.3996   17.6987   28.7921 H   0  0  0  0  0  0
   16.8364   14.4188   29.9863 H   0  0  0  0  0  0
   18.0304   13.6436   32.0045 H   0  0  0  0  0  0
   15.8051   16.4674   34.3882 H   0  0  0  0  0  0
   13.1978   18.6161   31.1418 H   0  0  0  0  0  0
   18.8071   14.7519   34.4265 H   0  0  0  0  0  0
   17.4844   15.1406   35.4550 H   0  0  0  0  0  0
   19.3877   12.7067   33.8825 H   0  0  0  0  0  0
   19.3906   12.3486   35.5911 H   0  0  0  0  0  0
   18.6014    8.6272   33.9915 H   0  0  0  0  0  0
   15.3763   14.5736   35.5430 H   0  0  0  0  0  0
   17.1608   10.7273   36.3148 H   0  0  0  0  0  0
   11.9497   12.9001   37.4905 H   0  0  0  0  0  0
   10.5921   12.9155   41.3418 H   0  0  0  0  0  0
   11.8995   11.8469   41.1112 H   0  0  0  0  0  0
   13.0832   14.0478   40.0264 H   0  0  0  0  0  0
   11.7931   14.8705   40.8665 H   0  0  0  0  0  0
   14.7015   12.8893   42.8914 H   0  0  0  0  0  0
    8.4170   14.4885   39.1907 H   0  0  0  0  0  0
  1 39  1  0  0  0
  1 40  1  0  0  0
  1 41  1  0  0  0
  1  2  1  0  0  0
  2  3  2  0  0  0
  2 11  1  0  0  0
  3  4  1  0  0  0
  4  9  2  0  0  0
  4  5  1  0  0  0
  5  6  2  0  0  0
  5 42  1  0  0  0
  6  7  1  0  0  0
  6 43  1  0  0  0
  7  8  2  0  0  0
  7 13  1  0  0  0
  8  9  1  0  0  0
  8 44  1  0  0  0
  9 10  1  0  0  0
 10 12  2  0  0  0
 10 11  1  0  0  0
 11 45  1  0  0  0
 13 14  1  0  0  0
 13 46  1  0  0  0
 13 47  1  0  0  0
 14 15  1  0  0  0
 14 18  1  0  0  0
 15 16  1  0  0  0
 15 48  1  0  0  0
 15 49  1  0  0  0
 16 17  3  0  0  0
 17 50  1  0  0  0
 18 23  1  0  0  0
 18 19  2  0  0  0
 19 20  1  0  0  0
 19 51  1  0  0  0
 20 21  2  0  0  0
 20 37  1  0  0  0
 21 22  1  0  0  0
 21 25  1  0  0  0
 22 23  2  0  0  0
 22 24  1  0  0  0
 23 52  1  0  0  0
 25 26  2  0  0  0
 25 27  1  0  0  0
 27 28  1  0  0  0
 27 53  1  0  0  0
 28 38  1  0  0  0
 28 29  1  0  0  0
 28 34  1  0  0  0
 29 30  1  0  0  0
 29 54  1  0  0  0
 29 55  1  0  0  0
 30 31  1  0  0  0
 30 56  1  0  0  0
 30 57  1  0  0  0
 31 32  2  0  0  0
 31 33  1  0  0  0
 33 58  1  0  0  0
 34 35  2  0  0  0
 34 36  1  0  0  0
 36 59  1  0  0  0
M  END
> <s_m_entry_id>
41846

> <s_m_entry_name>
ligand_docking-pose.206

> <s_m_Source_Path>
/home/csk/Desktop/cluster/DUD-E-result/tysy

> <s_m_Source_File>
ligand_docking-pose.sdf

> <i_m_Source_File_Index>
206

> <i_lp_mmshare_version>
53161

> <i_f3d_flags>
0

> <r_lp_tautomer_probability>
0.883938

> <s_lp_Force_Field>
OPLS_2005

> <r_lp_Energy>
23.420159

> <b_lp_Chiralities_Consistent>
1

> <s_lp_Variant>
120505-1

> <s_i_glide_gridfile>
glide-grid_1syn

> <i_i_glide_lignum>
614

> <i_i_glide_rotatable_bonds>
14

> <r_i_docking_score>
-7.64522218184857

> <r_i_glide_ligand_efficiency>
-0.206627626536448

> <r_i_glide_ligand_efficiency_sa>
-0.68852909146975

> <r_i_glide_ligand_efficiency_ln>
-1.65806946180577

> <r_i_glide_gscore>
-7.64522218184857

> <r_i_glide_lipo>
-3.43705997830573

> <r_i_glide_hbond>
-0.115785332762972

> <r_i_glide_metal>
0

> <r_i_glide_rewards>
-0.8875091526509

> <r_i_glide_evdw>
-61.635799407959

> <r_i_glide_ecoul>
-6.85054349899292

> <r_i_glide_erotb>
0.936712305360599

> <r_i_glide_esite>
-0.0322085282426867

> <r_i_glide_emodel>
-95.2904571500243

> <r_i_glide_energy>
-68.4863429069519

> <r_i_glide_einternal>
10.7060642242432

> <i_i_glide_confnum>
41

> <i_i_glide_posenum>
380

> <r_i_glide_eff_state_penalty>
0

> <s_user_duplicate_titles>
120505

> <s_m_subgroup_title>
dock_pv

> <s_m_subgroupid>
dock_pv1

> <b_m_subgroup_collapsed>
0

$$$$
39570
                    3D
 Schrodinger Suite 2021-1.
 31 32  0  0  1  0            999 V2000
   13.0414   15.4298   30.5759 C   0  0  0  0  0  0
   14.1395   16.4789   30.3094 C   0  0  0  0  0  0
   13.4399   17.5004   29.5082 N   0  0  0  0  0  0
   12.9845   18.5363   30.0727 C   0  0  0  0  0  0
   13.2357   18.8273   31.4253 N   0  0  0  0  0  0
   14.1396   18.1225   32.2502 C   0  0  0  0  0  0
   14.7141   16.9231   31.6495 N   0  0  0  0  0  0
   15.5980   16.1020   32.3911 C   0  0  0  0  0  0
   16.7783   15.5820   31.8349 C   0  0  0  0  0  0
   17.6507   14.7806   32.5641 C   0  0  0  0  0  0
   17.3741   14.4991   33.8940 C   0  0  0  0  0  0
   16.2385   15.0283   34.4980 C   0  0  0  0  0  0
   15.3603   15.8063   33.7490 C   0  0  0  0  0  0
   18.4287   13.4684   34.7829 Cl  0  0  0  0  0  0
   14.4046   18.5731   33.4016 N   0  0  0  0  0  0
   12.1920   19.4072   29.3098 N   0  0  0  0  0  0
   15.1660   15.9282   29.2873 C   0  0  0  0  0  0
   12.6603   14.9760   29.6615 H   0  0  0  0  0  0
   12.1945   15.8544   31.1156 H   0  0  0  0  0  0
   13.4299   14.6281   31.1898 H   0  0  0  0  0  0
   17.0899   15.8278   30.8368 H   0  0  0  0  0  0
   18.5460   14.3897   32.1000 H   0  0  0  0  0  0
   16.0232   14.8155   35.5351 H   0  0  0  0  0  0
   14.4694   16.1680   34.2405 H   0  0  0  0  0  0
   13.8913   19.4124   33.6470 H   0  0  0  0  0  0
   12.8669   19.6939   31.7812 H   0  0  0  0  0  0
   11.9152   19.0686   28.4014 H   0  0  0  0  0  0
   11.3956   19.8304   29.7683 H   0  0  0  0  0  0
   14.7209   15.7602   28.3033 H   0  0  0  0  0  0
   16.0011   16.6125   29.1402 H   0  0  0  0  0  0
   15.5485   14.9503   29.5810 H   0  0  0  0  0  0
  1 18  1  0  0  0
  1 19  1  0  0  0
  1 20  1  0  0  0
  1  2  1  0  0  0
  2 17  1  0  0  0
  2  7  1  0  0  0
  2  3  1  0  0  0
  3  4  2  0  0  0
  4  5  1  0  0  0
  4 16  1  0  0  0
  5  6  1  0  0  0
  5 26  1  0  0  0
  6  7  1  0  0  0
  6 15  2  0  0  0
  7  8  1  0  0  0
  8 13  1  0  0  0
  8  9  2  0  0  0
  9 10  1  0  0  0
  9 21  1  0  0  0
 10 11  2  0  0  0
 10 22  1  0  0  0
 11 12  1  0  0  0
 11 14  1  0  0  0
 12 13  2  0  0  0
 12 23  1  0  0  0
 13 24  1  0  0  0
 15 25  1  0  0  0
 16 27  1  0  0  0
 16 28  1  0  0  0
 17 29  1  0  0  0
 17 30  1  0  0  0
 17 31  1  0  0  0
M  END
> <s_m_entry_id>
41847

> <s_m_entry_name>
ligand_docking-pose.207

> <s_m_Source_Path>
/home/csk/Desktop/cluster/DUD-E-result/tysy

> <s_m_Source_File>
ligand_docking-pose.sdf

> <i_m_Source_File_Index>
207

> <i_lp_mmshare_version>
53161

> <i_f3d_flags>
0

> <r_lp_tautomer_probability>
0.0108233992430793

> <s_lp_Force_Field>
OPLS_2005

> <r_lp_Energy>
17.34818

> <b_lp_Chiralities_Consistent>
1

> <s_lp_Variant>
39570-7

> <s_i_glide_gridfile>
glide-grid_1syn

> <i_i_glide_lignum>
694

> <i_i_glide_rotatable_bonds>
1

> <r_i_docking_score>
-7.63995706271977

> <r_i_glide_ligand_efficiency>
-0.449409238983516

> <r_i_glide_ligand_efficiency_sa>
-1.15555770177873

> <r_i_glide_ligand_efficiency_ln>
-1.99309466418463

> <r_i_glide_gscore>
-7.63995706271977

> <r_i_glide_lipo>
-2.45509883511718

> <r_i_glide_hbond>
-0.373255775092503

> <r_i_glide_metal>
0

> <r_i_glide_rewards>
-2.4700015568458

> <r_i_glide_evdw>
-34.8613471984863

> <r_i_glide_ecoul>
-5.44963932037354

> <r_i_glide_erotb>
0.276736165970642

> <r_i_glide_esite>
-0.0578238036545905

> <r_i_glide_emodel>
-53.676724452151

> <r_i_glide_energy>
-40.3109865188599

> <r_i_glide_einternal>
6.12448263168335

> <i_i_glide_confnum>
4

> <i_i_glide_posenum>
275

> <r_i_glide_eff_state_penalty>
0

> <s_user_duplicate_titles>
39570

> <s_m_subgroup_title>
dock_pv

> <s_m_subgroupid>
dock_pv1

> <b_m_subgroup_collapsed>
0

$$$$
268200
                    3D
 Schrodinger Suite 2021-1.
 67 70  0  0  1  0            999 V2000
   16.7342    5.0279   39.7019 C   0  0  0  0  0  0
   15.5379    4.1946   39.8081 N   0  0  0  0  0  0
   14.8756    4.3410   41.1049 C   0  0  0  0  0  0
   14.6252    4.3424   38.6510 C   0  0  0  0  0  0
   14.2073    5.7741   38.2585 C   0  0  0  0  0  0
   14.0129    6.6884   39.1401 N   0  0  0  0  0  0
   13.7411    8.0013   38.7412 C   0  0  0  0  0  0
   13.5983    8.9726   39.7234 C   0  0  0  0  0  0
   13.3360   10.2915   39.3554 C   0  0  0  0  0  0
   13.2113   10.6405   38.0057 C   0  0  0  0  0  0
   13.3464    9.6621   37.0154 C   0  0  0  0  0  0
   13.6178    8.3471   37.3939 C   0  0  0  0  0  0
   13.8101    7.2625   36.3702 C   0  0  0  0  0  0
   14.0512    6.0508   36.9263 N   0  0  0  0  0  0
   13.7921    7.4268   35.1562 O   0  0  0  0  0  0
   12.8830   12.0695   37.6040 C   0  0  0  0  0  0
   13.9448   13.0173   37.9714 N   0  0  0  0  0  0
   13.5360   14.1647   38.7958 C   0  0  0  0  0  0
   13.2741   13.8267   40.2090 C   0  0  0  0  0  0
   13.1192   13.6001   41.3989 C   0  0  0  0  0  0
   14.9071   13.2618   36.9544 C   0  0  0  0  0  0
   15.0821   14.5386   36.4074 C   0  0  0  0  0  0
   16.1023   14.7940   35.5082 C   0  0  0  0  0  0
   16.9497   13.7693   35.0933 C   0  0  0  0  0  0
   16.7560   12.4728   35.5834 C   0  0  0  0  0  0
   15.7396   12.2267   36.5083 C   0  0  0  0  0  0
   17.9837   14.0877   34.0567 C   0  0  0  0  0  0
   18.7553   15.0382   34.1970 O   0  0  0  0  0  0
   17.7920   13.4436   32.8972 N   0  0  0  0  0  0
   18.0065   14.0441   31.5769 C   0  0  0  0  0  0
   16.8020   14.8810   31.1155 C   0  0  0  0  0  0
   16.1926   14.6247   29.8856 C   0  0  0  0  0  0
   15.0720   15.3513   29.4835 C   0  0  0  0  0  0
   14.5486   16.3456   30.3073 C   0  0  0  0  0  0
   15.1425   16.6278   31.5463 C   0  0  0  0  0  0
   16.2733   15.8921   31.9266 C   0  0  0  0  0  0
   14.6017   17.6870   32.4334 N   0  3  0  0  0  0
   15.2059   17.9494   33.4703 O   0  5  0  0  0  0
   13.5692   18.2571   32.0965 O   0  0  0  0  0  0
   17.2831    4.7945   38.7903 H   0  0  0  0  0  0
   17.3899    4.8594   40.5506 H   0  0  0  0  0  0
   16.5025    6.0949   39.6957 H   0  0  0  0  0  0
   14.0156    3.6754   41.1776 H   0  0  0  0  0  0
   15.5597    4.0794   41.9128 H   0  0  0  0  0  0
   14.5322    5.3617   41.2815 H   0  0  0  0  0  0
   15.1099    3.8719   37.7937 H   0  0  0  0  0  0
   13.7254    3.7543   38.8341 H   0  0  0  0  0  0
   13.6929    8.7004   40.7636 H   0  0  0  0  0  0
   13.2234   11.0404   40.1236 H   0  0  0  0  0  0
   13.2474    9.9229   35.9693 H   0  0  0  0  0  0
   14.1381    5.2921   36.2612 H   0  0  0  0  0  0
   12.6930   12.1193   36.5309 H   0  0  0  0  0  0
   11.9388   12.3453   38.0751 H   0  0  0  0  0  0
   14.3238   14.9182   38.8490 H   0  0  0  0  0  0
   12.6469   14.6295   38.3704 H   0  0  0  0  0  0
   13.0266   13.4036   42.4440 H   0  0  0  0  0  0
   14.4512   15.3665   36.6902 H   0  0  0  0  0  0
   16.2018   15.7982   35.1205 H   0  0  0  0  0  0
   17.3929   11.6596   35.2639 H   0  0  0  0  0  0
   15.6325   11.2334   36.9143 H   0  0  0  0  0  0
   17.2367   12.6044   32.9109 H   0  0  0  0  0  0
   18.8975   14.6768   31.5795 H   0  0  0  0  0  0
   18.1920   13.2353   30.8680 H   0  0  0  0  0  0
   16.5738   13.8458   29.2385 H   0  0  0  0  0  0
   14.6070   15.1385   28.5294 H   0  0  0  0  0  0
   13.6806   16.8990   29.9767 H   0  0  0  0  0  0
   16.7534   16.1206   32.8653 H   0  0  0  0  0  0
  1  2  1  0  0  0
  1 40  1  0  0  0
  1 41  1  0  0  0
  1 42  1  0  0  0
  2  3  1  0  0  0
  2  4  1  0  0  0
  3 43  1  0  0  0
  3 44  1  0  0  0
  3 45  1  0  0  0
  4 46  1  0  0  0
  4 47  1  0  0  0
  4  5  1  0  0  0
  5  6  2  0  0  0
  5 14  1  0  0  0
  6  7  1  0  0  0
  7 12  2  0  0  0
  7  8  1  0  0  0
  8  9  2  0  0  0
  8 48  1  0  0  0
  9 10  1  0  0  0
  9 49  1  0  0  0
 10 11  2  0  0  0
 10 16  1  0  0  0
 11 12  1  0  0  0
 11 50  1  0  0  0
 12 13  1  0  0  0
 13 15  2  0  0  0
 13 14  1  0  0  0
 14 51  1  0  0  0
 16 17  1  0  0  0
 16 52  1  0  0  0
 16 53  1  0  0  0
 17 18  1  0  0  0
 17 21  1  0  0  0
 18 19  1  0  0  0
 18 54  1  0  0  0
 18 55  1  0  0  0
 19 20  3  0  0  0
 20 56  1  0  0  0
 21 26  1  0  0  0
 21 22  2  0  0  0
 22 23  1  0  0  0
 22 57  1  0  0  0
 23 24  2  0  0  0
 23 58  1  0  0  0
 24 25  1  0  0  0
 24 27  1  0  0  0
 25 26  2  0  0  0
 25 59  1  0  0  0
 26 60  1  0  0  0
 27 28  2  0  0  0
 27 29  1  0  0  0
 29 30  1  0  0  0
 29 61  1  0  0  0
 30 31  1  0  0  0
 30 62  1  0  0  0
 30 63  1  0  0  0
 31 36  1  0  0  0
 31 32  2  0  0  0
 32 33  1  0  0  0
 32 64  1  0  0  0
 33 34  2  0  0  0
 33 65  1  0  0  0
 34 35  1  0  0  0
 34 66  1  0  0  0
 35 36  2  0  0  0
 35 37  1  0  0  0
 36 67  1  0  0  0
 37 38  1  0  0  0
 37 39  2  0  0  0
M  CHG  2  37   1  38  -1
M  END
> <s_m_entry_id>
41848

> <s_m_entry_name>
ligand_docking-pose.208

> <s_m_Source_Path>
/home/csk/Desktop/cluster/DUD-E-result/tysy

> <s_m_Source_File>
ligand_docking-pose.sdf

> <i_m_Source_File_Index>
208

> <i_lp_mmshare_version>
53161

> <i_f3d_flags>
0

> <r_lp_tautomer_probability>
0.883938

> <s_lp_Force_Field>
OPLS_2005

> <r_lp_Energy>
37.486279

> <b_lp_Chiralities_Consistent>
1

> <s_lp_Variant>
268200-1

> <s_i_glide_gridfile>
glide-grid_1syn

> <i_i_glide_lignum>
935

> <i_i_glide_rotatable_bonds>
12

> <r_i_docking_score>
-7.6315490932514

> <r_i_glide_ligand_efficiency>
-0.195680745980805

> <r_i_glide_ligand_efficiency_sa>
-0.663594784137281

> <r_i_glide_ligand_efficiency_ln>
-1.6364207599968

> <r_i_glide_gscore>
-7.6315490932514

> <r_i_glide_lipo>
-3.50989510502645

> <r_i_glide_hbond>
-0.559015417074669

> <r_i_glide_metal>
0

> <r_i_glide_rewards>
-0.271808960692784

> <r_i_glide_evdw>
-60.6404571533203

> <r_i_glide_ecoul>
-6.22796392440796

> <r_i_glide_erotb>
0.747792103664417

> <r_i_glide_esite>
-0.0724042677947022

> <r_i_glide_emodel>
-81.0002182469058

> <r_i_glide_energy>
-66.8684210777283

> <r_i_glide_einternal>
28.6178607940674

> <i_i_glide_confnum>
27

> <i_i_glide_posenum>
178

> <r_i_glide_eff_state_penalty>
0

> <s_user_duplicate_titles>
268200

> <s_m_subgroup_title>
dock_pv

> <s_m_subgroupid>
dock_pv1

> <b_m_subgroup_collapsed>
0

$$$$
294934
                    3D
 Schrodinger Suite 2021-1.
 56 58  0  0  1  0            999 V2000
   19.1985   10.5898   35.5910 C   0  0  0  0  0  0
   18.9920   11.5014   34.8109 C   0  0  0  0  0  0
   18.7927   12.6279   33.8882 C   0  0  0  0  0  0
   17.7652   13.6155   34.2800 N   0  0  0  0  0  0
   17.3809   13.8223   35.6966 C   0  0  0  0  0  0
   15.9625   13.3383   36.0139 C   0  0  0  0  0  0
   14.9764   14.2557   36.3911 C   0  0  0  0  0  0
   13.7005   13.8279   36.7517 C   0  0  0  0  0  0
   13.4018   12.4697   36.7523 C   0  0  0  0  0  0
   14.3812   11.5172   36.3843 C   0  0  0  0  0  0
   15.6583   11.9700   36.0096 C   0  0  0  0  0  0
   14.0092   10.0485   36.3909 C   0  0  0  0  0  0
   12.6990    9.7524   36.7597 N   0  0  0  0  0  0
   11.8435   10.6524   37.0719 C   0  0  0  0  0  0
   12.1129   12.0144   37.0987 N   0  0  0  0  0  0
   14.9920    8.7626   35.9910 S   0  0  0  0  0  0
   17.2289   14.4643   33.2680 C   0  0  0  0  0  0
   17.3919   14.1868   31.8982 C   0  0  0  0  0  0
   16.6307   14.8464   30.9386 C   0  0  0  0  0  0
   15.7119   15.8282   31.3211 C   0  0  0  0  0  0
   15.6852   16.2383   32.6598 C   0  0  0  0  0  0
   16.4297   15.5622   33.6108 C   0  0  0  0  0  0
   14.7220   16.3645   30.3149 C   0  0  0  0  0  0
   14.8075   16.0680   29.1237 O   0  0  0  0  0  0
   13.7160   17.0901   30.8380 N   0  0  0  0  0  0
   12.5316   17.6700   30.1976 C   0  0  2  0  0  0
   11.5977   16.6168   29.5420 C   0  0  0  0  0  0
   11.6584   15.1258   29.9910 C   0  0  0  0  0  0
   10.3877   14.3620   29.5910 C   0  0  0  0  0  0
    9.2898   14.8931   29.4462 O   0  0  0  0  0  0
   10.5920   13.0280   29.4305 O   0  0  0  0  0  0
   12.8122   18.8556   29.2457 C   0  0  0  0  0  0
   12.1920   19.8893   29.2849 O   0  0  0  0  0  0
   13.7919   18.5849   28.3432 O   0  0  0  0  0  0
   19.3921    9.8280   36.3060 H   0  0  0  0  0  0
   18.5122   12.1048   32.9765 H   0  0  0  0  0  0
   19.7496   13.1172   33.6994 H   0  0  0  0  0  0
   17.5221   14.8626   35.9910 H   0  0  0  0  0  0
   18.0354   13.2762   36.3708 H   0  0  0  0  0  0
   15.1931   15.3131   36.4118 H   0  0  0  0  0  0
   12.9481   14.5504   37.0280 H   0  0  0  0  0  0
   16.4258   11.2705   35.7214 H   0  0  0  0  0  0
   10.8232   10.3967   37.3451 H   0  0  0  0  0  0
   11.3859   12.6775   37.3195 H   0  0  0  0  0  0
   18.0348   13.4010   31.5355 H   0  0  0  0  0  0
   16.7134   14.5312   29.9068 H   0  0  0  0  0  0
   15.0414   17.0325   33.0077 H   0  0  0  0  0  0
   16.3081   15.8792   34.6292 H   0  0  0  0  0  0
   13.7662   17.2783   31.8251 H   0  0  0  0  0  0
   11.9843   18.1027   31.0362 H   0  0  0  0  0  0
   10.5778   17.0035   29.5915 H   0  0  0  0  0  0
   11.8105   16.6280   28.4845 H   0  0  0  0  0  0
   12.5325   14.6316   29.5700 H   0  0  0  0  0  0
   11.7920   15.0281   31.0661 H   0  0  0  0  0  0
   11.5021   12.7169   29.5909 H   0  0  0  0  0  0
   13.8983   19.3274   27.7476 H   0  0  0  0  0  0
  1  2  3  0  0  0
  1 35  1  0  0  0
  2  3  1  0  0  0
  3  4  1  0  0  0
  3 36  1  0  0  0
  3 37  1  0  0  0
  4  5  1  0  0  0
  4 17  1  0  0  0
  5 38  1  0  0  0
  5 39  1  0  0  0
  5  6  1  0  0  0
  6 11  2  0  0  0
  6  7  1  0  0  0
  7 40  1  0  0  0
  7  8  2  0  0  0
  8 41  1  0  0  0
  8  9  1  0  0  0
  9 10  2  0  0  0
  9 15  1  0  0  0
 10 12  1  0  0  0
 10 11  1  0  0  0
 11 42  1  0  0  0
 12 16  2  0  0  0
 12 13  1  0  0  0
 13 14  2  0  0  0
 14 15  1  0  0  0
 14 43  1  0  0  0
 15 44  1  0  0  0
 17 22  1  0  0  0
 17 18  2  0  0  0
 18 19  1  0  0  0
 18 45  1  0  0  0
 19 20  2  0  0  0
 19 46  1  0  0  0
 20 21  1  0  0  0
 20 23  1  0  0  0
 21 22  2  0  0  0
 21 47  1  0  0  0
 22 48  1  0  0  0
 23 24  2  0  0  0
 23 25  1  0  0  0
 25 26  1  0  0  0
 25 49  1  0  0  0
 26 27  1  0  0  0
 26 32  1  0  0  0
 26 50  1  0  0  0
 27 28  1  0  0  0
 27 51  1  0  0  0
 27 52  1  0  0  0
 28 29  1  0  0  0
 28 53  1  0  0  0
 28 54  1  0  0  0
 29 30  2  0  0  0
 29 31  1  0  0  0
 31 55  1  0  0  0
 32 33  2  0  0  0
 32 34  1  0  0  0
 34 56  1  0  0  0
M  END
> <s_m_entry_id>
41849

> <s_m_entry_name>
ligand_docking-pose.209

> <s_m_Source_Path>
/home/csk/Desktop/cluster/DUD-E-result/tysy

> <s_m_Source_File>
ligand_docking-pose.sdf

> <i_m_Source_File_Index>
209

> <i_lp_mmshare_version>
53161

> <i_f3d_flags>
0

> <r_lp_tautomer_probability>
0.116051

> <s_lp_Force_Field>
OPLS_2005

> <r_lp_Energy>
18.904839

> <b_lp_Chiralities_Consistent>
1

> <s_lp_Variant>
294934-3

> <s_i_glide_gridfile>
glide-grid_1syn

> <i_i_glide_lignum>
826

> <i_i_glide_rotatable_bonds>
14

> <r_i_docking_score>
-7.62280363667143

> <r_i_glide_ligand_efficiency>
-0.224200106960925

> <r_i_glide_ligand_efficiency_sa>
-0.726321311504528

> <r_i_glide_ligand_efficiency_ln>
-1.68409113574042

> <r_i_glide_gscore>
-7.62280363667143

> <r_i_glide_lipo>
-3.07731977669181

> <r_i_glide_hbond>
0

> <r_i_glide_metal>
0

> <r_i_glide_rewards>
-1.6013306017051

> <r_i_glide_evdw>
-54.3051567077637

> <r_i_glide_ecoul>
-8.60600566864014

> <r_i_glide_erotb>
1.06200542740968

> <r_i_glide_esite>
0

> <r_i_glide_emodel>
-83.3086903131086

> <r_i_glide_energy>
-62.9111623764038

> <r_i_glide_einternal>
11.6870012283325

> <i_i_glide_confnum>
75

> <i_i_glide_posenum>
390

> <r_i_glide_eff_state_penalty>
0

> <s_user_duplicate_titles>
294934

> <s_m_subgroup_title>
dock_pv

> <s_m_subgroupid>
dock_pv1

> <b_m_subgroup_collapsed>
0

$$$$
457
                    3D
 Schrodinger Suite 2021-1.
 58 61  0  0  1  0            999 V2000
    7.8229   13.4277   38.3586 C   0  0  0  0  0  0
    9.2568   12.9727   38.4805 C   0  0  0  0  0  0
    9.8054   12.3779   37.3635 N   0  0  0  0  0  0
   11.1318   11.9429   37.3777 C   0  0  0  0  0  0
   11.7041   11.3500   36.2594 C   0  0  0  0  0  0
   13.0436   10.9633   36.2954 C   0  0  0  0  0  0
   13.8156   11.1791   37.4407 C   0  0  0  0  0  0
   13.2198   11.7333   38.5839 C   0  0  0  0  0  0
   11.8732   12.1233   38.5525 C   0  0  0  0  0  0
   11.1994   12.7433   39.7721 C   0  0  0  0  0  0
    9.8730   13.1563   39.5866 N   0  0  0  0  0  0
   11.8119   12.8326   40.8377 O   0  0  0  0  0  0
   15.3006   10.8139   37.4631 C   0  0  0  0  0  0
   16.1246   11.2808   36.3223 N   0  0  0  0  0  0
   16.8479   10.2280   35.5910 C   0  0  0  0  0  0
   18.3207   10.3580   35.5910 C   0  0  0  0  0  0
   19.5201   10.5842   35.5597 C   0  0  0  0  0  0
   16.1785   12.6446   35.8791 C   0  0  0  0  0  0
   15.3923   13.6384   36.4785 C   0  0  0  0  0  0
   15.2675   14.8997   35.9095 C   0  0  0  0  0  0
   15.9905   15.2297   34.7598 C   0  0  0  0  0  0
   16.9382   14.3312   34.2739 C   0  0  0  0  0  0
   16.9920   13.0475   34.7988 C   0  0  0  0  0  0
   15.7110   16.4915   33.9909 C   0  0  0  0  0  0
   16.5914   17.0559   33.3425 O   0  0  0  0  0  0
   14.4182   16.8581   33.9674 N   0  0  0  0  0  0
   13.8403   17.8372   33.0497 C   0  0  0  0  0  0
   13.8726   17.4800   31.5585 C   0  0  0  0  0  0
   14.3939   16.2706   31.0653 C   0  0  0  0  0  0
   14.5080   16.0506   29.6949 C   0  0  0  0  0  0
   14.0752   17.0237   28.7996 C   0  0  0  0  0  0
   13.4908   18.1954   29.2765 C   0  0  0  0  0  0
   13.3919   18.4238   30.6495 C   0  0  0  0  0  0
   12.9916   19.1777   28.3409 C   0  0  0  0  0  0
   12.5920   19.9589   27.5910 N   0  0  0  0  0  0
    7.4404   13.8274   39.2985 H   0  0  0  0  0  0
    7.7329   14.2136   37.6085 H   0  0  0  0  0  0
    7.1753   12.6018   38.0656 H   0  0  0  0  0  0
   11.1251   11.1978   35.3611 H   0  0  0  0  0  0
   13.4898   10.5074   35.4264 H   0  0  0  0  0  0
   13.8125   11.8842   39.4770 H   0  0  0  0  0  0
    9.2596   12.2651   36.5254 H   0  0  0  0  0  0
   15.7549   11.1601   38.3860 H   0  0  0  0  0  0
   15.3378    9.7274   37.5451 H   0  0  0  0  0  0
   16.5921    9.2384   35.9674 H   0  0  0  0  0  0
   16.5119   10.2184   34.5599 H   0  0  0  0  0  0
   20.5664   10.7849   35.4896 H   0  0  0  0  0  0
   14.8168   13.4498   37.3657 H   0  0  0  0  0  0
   14.5915   15.6091   36.3636 H   0  0  0  0  0  0
   17.5369   14.5670   33.4037 H   0  0  0  0  0  0
   17.6413   12.3735   34.2702 H   0  0  0  0  0  0
   13.7686   16.3241   34.5231 H   0  0  0  0  0  0
   12.8026   18.0057   33.3383 H   0  0  0  0  0  0
   14.3342   18.8012   33.1944 H   0  0  0  0  0  0
   14.7428   15.4937   31.7269 H   0  0  0  0  0  0
   14.9360   15.1280   29.3290 H   0  0  0  0  0  0
   14.1734   16.8421   27.7378 H   0  0  0  0  0  0
   12.9699   19.3513   31.0155 H   0  0  0  0  0  0
  1 36  1  0  0  0
  1 37  1  0  0  0
  1 38  1  0  0  0
  1  2  1  0  0  0
  2  3  1  0  0  0
  2 11  2  0  0  0
  3  4  1  0  0  0
  3 42  1  0  0  0
  4  9  2  0  0  0
  4  5  1  0  0  0
  5  6  2  0  0  0
  5 39  1  0  0  0
  6  7  1  0  0  0
  6 40  1  0  0  0
  7  8  2  0  0  0
  7 13  1  0  0  0
  8  9  1  0  0  0
  8 41  1  0  0  0
  9 10  1  0  0  0
 10 12  2  0  0  0
 10 11  1  0  0  0
 13 14  1  0  0  0
 13 43  1  0  0  0
 13 44  1  0  0  0
 14 15  1  0  0  0
 14 18  1  0  0  0
 15 16  1  0  0  0
 15 45  1  0  0  0
 15 46  1  0  0  0
 16 17  3  0  0  0
 17 47  1  0  0  0
 18 23  1  0  0  0
 18 19  2  0  0  0
 19 20  1  0  0  0
 19 48  1  0  0  0
 20 21  2  0  0  0
 20 49  1  0  0  0
 21 22  1  0  0  0
 21 24  1  0  0  0
 22 23  2  0  0  0
 22 50  1  0  0  0
 23 51  1  0  0  0
 24 25  2  0  0  0
 24 26  1  0  0  0
 26 27  1  0  0  0
 26 52  1  0  0  0
 27 28  1  0  0  0
 27 53  1  0  0  0
 27 54  1  0  0  0
 28 33  1  0  0  0
 28 29  2  0  0  0
 29 30  1  0  0  0
 29 55  1  0  0  0
 30 31  2  0  0  0
 30 56  1  0  0  0
 31 32  1  0  0  0
 31 57  1  0  0  0
 32 33  2  0  0  0
 32 34  1  0  0  0
 33 58  1  0  0  0
 34 35  3  0  0  0
M  END
> <s_m_entry_id>
41851

> <s_m_entry_name>
ligand_docking-pose.211

> <s_m_Source_Path>
/home/csk/Desktop/cluster/DUD-E-result/tysy

> <s_m_Source_File>
ligand_docking-pose.sdf

> <i_m_Source_File_Index>
211

> <i_lp_mmshare_version>
53161

> <i_f3d_flags>
0

> <r_lp_tautomer_probability>
0.116051

> <s_lp_Force_Field>
OPLS_2005

> <r_lp_Energy>
25.458935

> <b_lp_Chiralities_Consistent>
1

> <s_lp_Variant>
457-2

> <s_i_glide_gridfile>
glide-grid_1syn

> <i_i_glide_lignum>
533

> <i_i_glide_rotatable_bonds>
9

> <r_i_docking_score>
-7.61403284761855

> <r_i_glide_ligand_efficiency>
-0.217543795646244

> <r_i_glide_ligand_efficiency_sa>
-0.711600180085652

> <r_i_glide_ligand_efficiency_ln>
-1.67144919440669

> <r_i_glide_gscore>
-7.61403284761855

> <r_i_glide_lipo>
-3.77747412315823

> <r_i_glide_hbond>
-0.0557193754272621

> <r_i_glide_metal>
0

> <r_i_glide_rewards>
-1.54881410925102

> <r_i_glide_evdw>
-50.5247001647949

> <r_i_glide_ecoul>
-3.69930553436279

> <r_i_glide_erotb>
0.850868084000066

> <r_i_glide_esite>
-0.00176248538794656

> <r_i_glide_emodel>
-74.6193515403333

> <r_i_glide_energy>
-54.2240056991577

> <r_i_glide_einternal>
11.3101329803467

> <i_i_glide_confnum>
9

> <i_i_glide_posenum>
153

> <r_i_glide_eff_state_penalty>
0

> <s_user_duplicate_titles>
457

> <s_m_subgroup_title>
dock_pv

> <s_m_subgroupid>
dock_pv1

> <b_m_subgroup_collapsed>
0

$$$$
462
                    3D
 Schrodinger Suite 2021-1.
 62 65  0  0  1  0            999 V2000
   18.4173   13.7850   32.0673 C   0  0  0  0  0  0
   17.2697   14.7100   32.4141 C   0  0  0  0  0  0
   16.5215   15.2485   31.3580 C   0  0  0  0  0  0
   15.4922   16.1486   31.6146 C   0  0  0  0  0  0
   15.2394   16.5372   32.9294 C   0  0  0  0  0  0
   15.9793   16.0158   33.9869 C   0  0  0  0  0  0
   16.9704   15.0567   33.7496 C   0  0  0  0  0  0
   17.7291   14.4667   34.9504 C   0  0  0  0  0  0
   17.4671   13.0293   35.1948 N   0  0  0  0  0  0
   18.6771   12.1828   35.2103 C   0  0  0  0  0  0
   18.5924   10.9193   34.4616 C   0  0  0  0  0  0
   18.5923    9.8655   33.8485 C   0  0  0  0  0  0
   16.2885   12.6166   35.9015 C   0  0  0  0  0  0
   15.2283   13.5010   36.1499 C   0  0  0  0  0  0
   14.0317   13.0881   36.7268 C   0  0  0  0  0  0
   13.8506   11.7535   37.0993 C   0  0  0  0  0  0
   14.9233   10.8656   36.9445 C   0  0  0  0  0  0
   16.1144   11.3008   36.3690 C   0  0  0  0  0  0
   14.8231    9.5651   37.3120 F   0  0  0  0  0  0
   12.5001   11.2609   37.5493 C   0  0  0  0  0  0
   12.3738   10.4564   38.4736 O   0  0  0  0  0  0
   11.4777   11.7136   36.8058 N   0  0  0  0  0  0
   10.1043   11.2217   36.8260 C   0  0  0  0  0  0
    9.5912   11.0284   35.4061 C   0  0  0  0  0  0
   10.0967    9.9985   34.6068 C   0  0  0  0  0  0
    9.6496    9.8430   33.2966 C   0  0  0  0  0  0
    8.6960   10.7151   32.7750 C   0  0  0  0  0  0
    8.1588   11.7442   33.5654 C   0  0  0  0  0  0
    8.6074   11.8772   34.8887 C   0  0  0  0  0  0
    7.1459   12.6755   33.0117 N   0  3  0  0  0  0
    6.9371   12.6617   31.8019 O   0  5  0  0  0  0
    6.5577   13.4256   33.7867 O   0  0  0  0  0  0
   14.1107   17.5038   33.1768 C   0  0  0  0  0  0
   13.5317   17.9311   32.0283 N   0  0  0  0  0  0
   13.8242   17.5212   30.7571 C   0  0  0  0  0  0
   14.7591   16.6714   30.5332 N   0  0  0  0  0  0
   13.0407   18.1272   29.6157 C   0  0  0  0  0  0
   13.7097   17.8553   34.2799 O   0  0  0  0  0  0
   18.1720   12.7583   32.3303 H   0  0  0  0  0  0
   18.6662   13.8180   31.0058 H   0  0  0  0  0  0
   19.3218   14.0600   32.6097 H   0  0  0  0  0  0
   16.7315   14.9714   30.3349 H   0  0  0  0  0  0
   15.7857   16.3546   34.9940 H   0  0  0  0  0  0
   18.7905   14.6591   34.7879 H   0  0  0  0  0  0
   17.4963   15.0281   35.8530 H   0  0  0  0  0  0
   19.5440   12.7018   34.7960 H   0  0  0  0  0  0
   18.9301   11.9204   36.2333 H   0  0  0  0  0  0
   18.5967    9.0274   33.1993 H   0  0  0  0  0  0
   15.2907   14.5349   35.8889 H   0  0  0  0  0  0
   13.2395   13.8153   36.8513 H   0  0  0  0  0  0
   16.8868   10.5595   36.2792 H   0  0  0  0  0  0
   11.6662   12.4626   36.1589 H   0  0  0  0  0  0
   10.0248   10.2719   37.3628 H   0  0  0  0  0  0
    9.4743   11.9241   37.3759 H   0  0  0  0  0  0
   10.8499    9.3245   34.9921 H   0  0  0  0  0  0
   10.0496    9.0496   32.6818 H   0  0  0  0  0  0
    8.3740   10.5832   31.7507 H   0  0  0  0  0  0
    8.2138   12.6696   35.5093 H   0  0  0  0  0  0
   13.5355   19.0276   29.2478 H   0  0  0  0  0  0
   12.9641   17.4312   28.7788 H   0  0  0  0  0  0
   12.0227   18.3949   29.9196 H   0  0  0  0  0  0
   12.8028   18.6108   32.1703 H   0  0  0  0  0  0
  1 39  1  0  0  0
  1 40  1  0  0  0
  1 41  1  0  0  0
  1  2  1  0  0  0
  2  7  1  0  0  0
  2  3  2  0  0  0
  3 42  1  0  0  0
  3  4  1  0  0  0
  4  5  2  0  0  0
  4 36  1  0  0  0
  5 33  1  0  0  0
  5  6  1  0  0  0
  6 43  1  0  0  0
  6  7  2  0  0  0
  7  8  1  0  0  0
  8  9  1  0  0  0
  8 44  1  0  0  0
  8 45  1  0  0  0
  9 10  1  0  0  0
  9 13  1  0  0  0
 10 11  1  0  0  0
 10 46  1  0  0  0
 10 47  1  0  0  0
 11 12  3  0  0  0
 12 48  1  0  0  0
 13 18  1  0  0  0
 13 14  2  0  0  0
 14 15  1  0  0  0
 14 49  1  0  0  0
 15 16  2  0  0  0
 15 50  1  0  0  0
 16 17  1  0  0  0
 16 20  1  0  0  0
 17 18  2  0  0  0
 17 19  1  0  0  0
 18 51  1  0  0  0
 20 21  2  0  0  0
 20 22  1  0  0  0
 22 23  1  0  0  0
 22 52  1  0  0  0
 23 24  1  0  0  0
 23 53  1  0  0  0
 23 54  1  0  0  0
 24 29  1  0  0  0
 24 25  2  0  0  0
 25 26  1  0  0  0
 25 55  1  0  0  0
 26 27  2  0  0  0
 26 56  1  0  0  0
 27 28  1  0  0  0
 27 57  1  0  0  0
 28 29  2  0  0  0
 28 30  1  0  0  0
 29 58  1  0  0  0
 30 31  1  0  0  0
 30 32  2  0  0  0
 33 38  2  0  0  0
 33 34  1  0  0  0
 34 35  1  0  0  0
 34 62  1  0  0  0
 35 36  2  0  0  0
 35 37  1  0  0  0
 37 59  1  0  0  0
 37 60  1  0  0  0
 37 61  1  0  0  0
M  CHG  2  30   1  31  -1
M  END
> <s_m_entry_id>
41852

> <s_m_entry_name>
ligand_docking-pose.212

> <s_m_Source_Path>
/home/csk/Desktop/cluster/DUD-E-result/tysy

> <s_m_Source_File>
ligand_docking-pose.sdf

> <i_m_Source_File_Index>
212

> <i_lp_mmshare_version>
53161

> <i_f3d_flags>
0

> <r_lp_tautomer_probability>
0.883938

> <s_lp_Force_Field>
OPLS_2005

> <r_lp_Energy>
33.218753

> <b_lp_Chiralities_Consistent>
1

> <s_lp_Variant>
462-1

> <s_i_glide_gridfile>
glide-grid_1syn

> <i_i_glide_lignum>
189

> <i_i_glide_rotatable_bonds>
10

> <r_i_docking_score>
-7.60810631259201

> <r_i_glide_ligand_efficiency>
-0.200213324015579

> <r_i_glide_ligand_efficiency_sa>
-0.673112270637681

> <r_i_glide_ligand_efficiency_ln>
-1.64053152880741

> <r_i_glide_gscore>
-7.60810631259201

> <r_i_glide_lipo>
-3.47123483912578

> <r_i_glide_hbond>
0

> <r_i_glide_metal>
0

> <r_i_glide_rewards>
-0.721779564093574

> <r_i_glide_evdw>
-54.2657012939453

> <r_i_glide_ecoul>
-9.34457302093506

> <r_i_glide_erotb>
0.699879108464876

> <r_i_glide_esite>
0

> <r_i_glide_emodel>
-87.4709574814415

> <r_i_glide_energy>
-63.6102743148804

> <r_i_glide_einternal>
4.45849323272705

> <i_i_glide_confnum>
22

> <i_i_glide_posenum>
389

> <r_i_glide_eff_state_penalty>
0

> <s_user_duplicate_titles>
462

> <s_m_subgroup_title>
dock_pv

> <s_m_subgroupid>
dock_pv1

> <b_m_subgroup_collapsed>
0

$$$$
604735
                    3D
 Schrodinger Suite 2021-1.
 34 35  0  0  1  0            999 V2000
   13.5205   17.5684   30.7725 C   0  0  0  0  0  0
   12.6662   18.6050   30.6573 C   0  0  0  0  0  0
   12.5875   19.5705   31.7416 C   0  0  0  0  0  0
   11.8824   20.5769   31.7553 O   0  0  0  0  0  0
   13.3920   19.2497   32.7910 N   0  0  0  0  0  0
   14.2814   18.2177   32.9468 C   0  0  0  0  0  0
   14.9101   18.1274   34.0014 O   0  0  0  0  0  0
   14.3555   17.3665   31.8549 N   0  0  0  0  0  0
   15.2175   16.1780   31.9343 C   0  0  1  0  0  0
   15.6505   15.4261   30.6513 C   0  0  2  0  0  0
   16.9771   14.8008   31.1148 C   0  0  1  0  0  0
   17.1134   15.1244   32.6100 C   0  0  2  0  0  0
   16.4393   16.3789   32.6038 O   0  0  0  0  0  0
   18.5710   15.2182   33.1543 C   0  0  0  0  0  0
   18.9391   14.3531   34.2313 O   0  0  0  0  0  0
   18.4629   12.7959   34.3351 P   0  0  0  0  0  0
   17.2592   12.5617   35.1761 O   0  0  0  0  0  0
   18.3092   12.3480   32.7910 O   0  0  0  0  0  0
   19.7920   11.9925   34.7910 O   0  0  0  0  0  0
   16.9920   13.4280   30.8151 O   0  0  0  0  0  0
   15.8569   16.2280   29.5015 O   0  0  0  0  0  0
   11.8753   18.7518   29.5724 F   0  0  0  0  0  0
   13.3275   19.8890   33.5770 H   0  0  0  0  0  0
   14.8916   14.6703   30.4356 H   0  0  0  0  0  0
   17.8093   15.2790   30.5932 H   0  0  0  0  0  0
   16.5384   14.4356   33.2280 H   0  0  0  0  0  0
   13.5792   16.8155   30.0047 H   0  0  0  0  0  0
   14.5920   15.5139   32.5355 H   0  0  0  0  0  0
   18.7666   16.2290   33.5054 H   0  0  0  0  0  0
   19.2859   15.0280   32.3517 H   0  0  0  0  0  0
   19.1544   12.2280   32.2779 H   0  0  0  0  0  0
   20.4941   11.8563   34.0951 H   0  0  0  0  0  0
   17.5345   12.9648   31.4708 H   0  0  0  0  0  0
   16.0315   15.6438   28.7573 H   0  0  0  0  0  0
  1  8  1  0  0  0
  1  2  2  0  0  0
  1 27  1  0  0  0
  2  3  1  0  0  0
  2 22  1  0  0  0
  3  4  2  0  0  0
  3  5  1  0  0  0
  5 23  1  0  0  0
  5  6  1  0  0  0
  6  7  2  0  0  0
  6  8  1  0  0  0
  8  9  1  0  0  0
  9 13  1  0  0  0
  9 10  1  0  0  0
  9 28  1  0  0  0
 10 24  1  0  0  0
 10 11  1  0  0  0
 10 21  1  0  0  0
 11 25  1  0  0  0
 11 12  1  0  0  0
 11 20  1  0  0  0
 12 26  1  0  0  0
 12 13  1  0  0  0
 12 14  1  0  0  0
 14 15  1  0  0  0
 14 29  1  0  0  0
 14 30  1  0  0  0
 15 16  1  0  0  0
 16 17  2  0  0  0
 16 18  1  0  0  0
 16 19  1  0  0  0
 18 31  1  0  0  0
 19 32  1  0  0  0
 20 33  1  0  0  0
 21 34  1  0  0  0
M  END
> <s_m_entry_id>
41854

> <s_m_entry_name>
ligand_docking-pose.214

> <s_m_Source_Path>
/home/csk/Desktop/cluster/DUD-E-result/tysy

> <s_m_Source_File>
ligand_docking-pose.sdf

> <i_m_Source_File_Index>
214

> <i_lp_mmshare_version>
53161

> <i_f3d_flags>
0

> <r_lp_tautomer_probability>
0.999537046341301

> <s_lp_Force_Field>
OPLS_2005

> <r_lp_Energy>
21.79342

> <b_lp_Chiralities_Consistent>
1

> <s_lp_Variant>
604735-2

> <s_i_glide_gridfile>
glide-grid_1syn

> <i_i_glide_lignum>
163

> <i_i_glide_rotatable_bonds>
8

> <r_i_docking_score>
-7.58916015192021

> <r_i_glide_ligand_efficiency>
-0.344961825087282

> <r_i_glide_ligand_efficiency_sa>
-0.966596600473298

> <r_i_glide_ligand_efficiency_ln>
-1.85506756247183

> <r_i_glide_gscore>
-7.58916015192021

> <r_i_glide_lipo>
-1.55589733297584

> <r_i_glide_hbond>
-0.144772055617787

> <r_i_glide_metal>
0

> <r_i_glide_rewards>
-2.18503290305046

> <r_i_glide_evdw>
-35.0813522338867

> <r_i_glide_ecoul>
-16.3019924163818

> <r_i_glide_erotb>
0.647725430161991

> <r_i_glide_esite>
-0.151816816286496

> <r_i_glide_emodel>
-72.062045018558

> <r_i_glide_energy>
-51.3833446502686

> <r_i_glide_einternal>
12.3532972335815

> <i_i_glide_confnum>
126

> <i_i_glide_posenum>
381

> <r_i_glide_eff_state_penalty>
0

> <s_user_duplicate_titles>
604735

> <s_m_subgroup_title>
dock_pv

> <s_m_subgroupid>
dock_pv1

> <b_m_subgroup_collapsed>
0

$$$$
361
                    3D
 Schrodinger Suite 2021-1.
 57 60  0  0  1  0            999 V2000
   12.5890   18.3020   29.3571 C   0  0  0  0  0  0
   13.5103   17.7419   30.4115 C   0  0  0  0  0  0
   14.3264   16.7856   30.1446 N   0  0  0  0  0  0
   15.2014   16.3261   31.1469 C   0  0  0  0  0  0
   16.1050   15.3086   30.8439 C   0  0  0  0  0  0
   17.0100   14.8693   31.8174 C   0  0  0  0  0  0
   17.0089   15.4402   33.0994 C   0  0  0  0  0  0
   16.0971   16.4515   33.4049 C   0  0  0  0  0  0
   15.2061   16.8879   32.4275 C   0  0  0  0  0  0
   14.2454   18.0095   32.7152 C   0  0  0  0  0  0
   13.4638   18.3100   31.6528 N   0  0  0  0  0  0
   14.1810   18.6268   33.7698 O   0  0  0  0  0  0
   18.0199   15.0095   34.1564 C   0  0  0  0  0  0
   17.7787   13.6417   34.6316 N   0  0  0  0  0  0
   18.5901   12.6098   33.9691 C   0  0  0  0  0  0
   19.0223   11.5146   34.8527 C   0  0  0  0  0  0
   19.3918   10.6192   35.5910 C   0  0  0  0  0  0
   16.5882   13.3312   35.3574 C   0  0  0  0  0  0
   16.0603   12.0307   35.3904 C   0  0  0  0  0  0
   14.9288   11.7185   36.1276 C   0  0  0  0  0  0
   14.2673   12.7019   36.8633 C   0  0  0  0  0  0
   14.7562   14.0156   36.8121 C   0  0  0  0  0  0
   15.8982   14.3181   36.0732 C   0  0  0  0  0  0
   13.0936   12.3025   37.7277 C   0  0  0  0  0  0
   12.8096   11.1132   37.8908 O   0  0  0  0  0  0
   12.4268   13.2886   38.3524 N   0  0  0  0  0  0
   11.5154   13.0752   39.4770 C   0  0  0  0  0  0
   12.2662   13.0988   40.8024 C   0  0  0  0  0  0
   12.1424   14.1990   41.6533 C   0  0  0  0  0  0
   12.8516   14.2279   42.8494 C   0  0  0  0  0  0
   13.6825   13.1662   43.1922 C   0  0  0  0  0  0
   13.7915   12.0539   42.3633 C   0  0  0  0  0  0
   13.0716   12.0149   41.1722 C   0  0  0  0  0  0
   12.6782   17.7611   28.4153 H   0  0  0  0  0  0
   11.5489   18.2469   29.6726 H   0  0  0  0  0  0
   12.8240   19.3472   29.1584 H   0  0  0  0  0  0
   16.1095   14.8705   29.8572 H   0  0  0  0  0  0
   17.7179   14.0901   31.5703 H   0  0  0  0  0  0
   16.0857   16.8991   34.3896 H   0  0  0  0  0  0
   12.8360   19.0803   31.8149 H   0  0  0  0  0  0
   19.0089   15.0895   33.7008 H   0  0  0  0  0  0
   18.0552   15.7055   34.9933 H   0  0  0  0  0  0
   18.0433   12.1894   33.1280 H   0  0  0  0  0  0
   19.5097   13.0277   33.5554 H   0  0  0  0  0  0
   19.7168    9.8354   36.2328 H   0  0  0  0  0  0
   16.4883   11.2316   34.8090 H   0  0  0  0  0  0
   14.5772   10.6963   36.1216 H   0  0  0  0  0  0
   14.2942   14.8147   37.3722 H   0  0  0  0  0  0
   16.2550   15.3342   36.1054 H   0  0  0  0  0  0
   12.6625   14.2423   38.1273 H   0  0  0  0  0  0
   10.7353   13.8366   39.4587 H   0  0  0  0  0  0
   10.9954   12.1177   39.3905 H   0  0  0  0  0  0
   11.5042   15.0303   41.3889 H   0  0  0  0  0  0
   12.7391   15.0596   43.5262 H   0  0  0  0  0  0
   14.2320   13.1969   44.1198 H   0  0  0  0  0  0
   14.4318   11.2298   42.6428 H   0  0  0  0  0  0
   13.1626   11.1541   40.5244 H   0  0  0  0  0  0
  1 34  1  0  0  0
  1 35  1  0  0  0
  1 36  1  0  0  0
  1  2  1  0  0  0
  2  3  2  0  0  0
  2 11  1  0  0  0
  3  4  1  0  0  0
  4  9  2  0  0  0
  4  5  1  0  0  0
  5  6  2  0  0  0
  5 37  1  0  0  0
  6  7  1  0  0  0
  6 38  1  0  0  0
  7  8  2  0  0  0
  7 13  1  0  0  0
  8  9  1  0  0  0
  8 39  1  0  0  0
  9 10  1  0  0  0
 10 12  2  0  0  0
 10 11  1  0  0  0
 11 40  1  0  0  0
 13 14  1  0  0  0
 13 41  1  0  0  0
 13 42  1  0  0  0
 14 15  1  0  0  0
 14 18  1  0  0  0
 15 16  1  0  0  0
 15 43  1  0  0  0
 15 44  1  0  0  0
 16 17  3  0  0  0
 17 45  1  0  0  0
 18 23  1  0  0  0
 18 19  2  0  0  0
 19 20  1  0  0  0
 19 46  1  0  0  0
 20 21  2  0  0  0
 20 47  1  0  0  0
 21 22  1  0  0  0
 21 24  1  0  0  0
 22 23  2  0  0  0
 22 48  1  0  0  0
 23 49  1  0  0  0
 24 25  2  0  0  0
 24 26  1  0  0  0
 26 27  1  0  0  0
 26 50  1  0  0  0
 27 28  1  0  0  0
 27 51  1  0  0  0
 27 52  1  0  0  0
 28 33  1  0  0  0
 28 29  2  0  0  0
 29 30  1  0  0  0
 29 53  1  0  0  0
 30 31  2  0  0  0
 30 54  1  0  0  0
 31 32  1  0  0  0
 31 55  1  0  0  0
 32 33  2  0  0  0
 32 56  1  0  0  0
 33 57  1  0  0  0
M  END
> <s_m_entry_id>
41858

> <s_m_entry_name>
ligand_docking-pose.218

> <s_m_Source_Path>
/home/csk/Desktop/cluster/DUD-E-result/tysy

> <s_m_Source_File>
ligand_docking-pose.sdf

> <i_m_Source_File_Index>
218

> <i_lp_mmshare_version>
53161

> <i_f3d_flags>
0

> <r_lp_tautomer_probability>
0.883938

> <s_lp_Force_Field>
OPLS_2005

> <r_lp_Energy>
28.243004

> <b_lp_Chiralities_Consistent>
1

> <s_lp_Variant>
361-1

> <s_i_glide_gridfile>
glide-grid_1syn

> <i_i_glide_lignum>
530

> <i_i_glide_rotatable_bonds>
9

> <r_i_docking_score>
-7.56133091551117

> <r_i_glide_ligand_efficiency>
-0.229131239863975

> <r_i_glide_ligand_efficiency_sa>
-0.734946317081626

> <r_i_glide_ligand_efficiency_ln>
-1.68160084513349

> <r_i_glide_gscore>
-7.56133091551117

> <r_i_glide_lipo>
-3.83603364335143

> <r_i_glide_hbond>
0

> <r_i_glide_metal>
0

> <r_i_glide_rewards>
-1.04571845825156

> <r_i_glide_evdw>
-58.9159545898438

> <r_i_glide_ecoul>
-3.80478978157043

> <r_i_glide_erotb>
0.836937382819575

> <r_i_glide_esite>
0

> <r_i_glide_emodel>
-90.2133516338416

> <r_i_glide_energy>
-62.7207443714142

> <r_i_glide_einternal>
3.70836663246155

> <i_i_glide_confnum>
6

> <i_i_glide_posenum>
285

> <r_i_glide_eff_state_penalty>
0

> <s_user_duplicate_titles>
361

> <s_m_subgroup_title>
dock_pv

> <s_m_subgroupid>
dock_pv1

> <b_m_subgroup_collapsed>
0

$$$$
207360
                    3D
 Schrodinger Suite 2021-1.
 65 68  0  0  1  0            999 V2000
   18.4415   13.6737   32.1613 C   0  0  0  0  0  0
   17.3039   14.6284   32.4660 C   0  0  0  0  0  0
   16.5910   15.1667   31.3870 C   0  0  0  0  0  0
   15.5729   16.0848   31.6127 C   0  0  0  0  0  0
   15.2744   16.5015   32.9114 C   0  0  0  0  0  0
   15.9909   15.9735   33.9892 C   0  0  0  0  0  0
   16.9796   15.0048   33.7850 C   0  0  0  0  0  0
   17.6870   14.4089   35.0111 C   0  0  0  0  0  0
   17.3949   12.9729   35.2272 N   0  0  0  0  0  0
   18.5800   12.1027   35.3628 C   0  0  0  0  0  0
   18.5928   10.8835   34.5367 C   0  0  0  0  0  0
   18.5921    9.8554   33.8811 C   0  0  0  0  0  0
   16.1277   12.5557   35.7492 C   0  0  0  0  0  0
   15.0914   13.4653   36.0032 C   0  0  0  0  0  0
   13.8213   13.0540   36.3962 C   0  0  0  0  0  0
   13.5301   11.6969   36.5775 C   0  0  0  0  0  0
   14.5795   10.7755   36.4069 C   0  0  0  0  0  0
   15.8405   11.2080   36.0185 C   0  0  0  0  0  0
   14.4140    9.4430   36.5911 F   0  0  0  0  0  0
   12.1227   11.2896   36.9616 C   0  0  0  0  0  0
   11.2055   12.1119   36.9705 O   0  0  0  0  0  0
   11.9673   10.0111   37.3453 N   0  0  0  0  0  0
   10.7788    9.3372   37.8865 C   0  0  1  0  0  0
   10.5611    9.5564   39.4242 C   0  0  0  0  0  0
   11.7368   10.1356   40.2530 C   0  0  0  0  0  0
   11.8281   11.9617   40.2563 S   0  0  0  0  0  0
   12.9913   12.2966   41.5317 C   0  0  0  0  0  0
   13.4631   13.5157   41.7186 N   0  0  0  0  0  0
   14.2639   13.4375   42.8347 N   0  0  0  0  0  0
   14.1918   12.1595   43.1910 N   0  0  3  0  0  0
   13.4065   11.4098   42.4121 N   0  0  0  0  0  0
    9.4946    9.5110   37.0325 C   0  0  0  0  0  0
    8.3911    9.7317   37.4891 O   0  0  0  0  0  0
    9.7678    9.3243   35.7086 O   0  0  0  0  0  0
   14.1567   17.5074   33.1424 C   0  0  0  0  0  0
   13.5235   17.9758   31.9846 N   0  0  0  0  0  0
   13.8409   17.5593   30.8191 C   0  0  0  0  0  0
   14.8294   16.6286   30.5607 N   0  0  0  0  0  0
   13.1122   18.1321   29.6243 C   0  0  0  0  0  0
   13.8691   17.8283   34.2940 O   0  0  0  0  0  0
   11.0282    8.2817   37.7649 H   0  0  0  0  0  0
   14.6201   11.8171   44.0517 H   0  0  0  0  0  0
   18.1135   12.6373   32.2471 H   0  0  0  0  0  0
   18.8313   13.8353   31.1558 H   0  0  0  0  0  0
   19.2868   13.8230   32.8317 H   0  0  0  0  0  0
   16.8308   14.8644   30.3787 H   0  0  0  0  0  0
   15.7636   16.3058   34.9918 H   0  0  0  0  0  0
   18.7574   14.5873   34.8945 H   0  0  0  0  0  0
   17.4209   14.9685   35.9104 H   0  0  0  0  0  0
   19.5004   12.6322   35.1200 H   0  0  0  0  0  0
   18.6742   11.7735   36.3910 H   0  0  0  0  0  0
   18.5926    9.0278   33.2176 H   0  0  0  0  0  0
   15.2374   14.5195   35.9056 H   0  0  0  0  0  0
   13.0592   13.8081   36.5479 H   0  0  0  0  0  0
   16.5716   10.4312   35.9140 H   0  0  0  0  0  0
   12.7744    9.4141   37.2279 H   0  0  0  0  0  0
    9.6750   10.1618   39.6281 H   0  0  0  0  0  0
   10.3167    8.5770   39.8404 H   0  0  0  0  0  0
   11.6038    9.8218   41.2839 H   0  0  0  0  0  0
   12.6911    9.7072   39.9447 H   0  0  0  0  0  0
    8.9760    9.4448   35.1807 H   0  0  0  0  0  0
   12.2365   18.7110   29.9215 H   0  0  0  0  0  0
   13.7665   18.7951   29.0593 H   0  0  0  0  0  0
   12.7682   17.3436   28.9557 H   0  0  0  0  0  0
   15.0171   16.3400   29.6166 H   0  0  0  0  0  0
  1 43  1  0  0  0
  1 44  1  0  0  0
  1 45  1  0  0  0
  1  2  1  0  0  0
  2  7  1  0  0  0
  2  3  2  0  0  0
  3 46  1  0  0  0
  3  4  1  0  0  0
  4  5  2  0  0  0
  4 38  1  0  0  0
  5 35  1  0  0  0
  5  6  1  0  0  0
  6 47  1  0  0  0
  6  7  2  0  0  0
  7  8  1  0  0  0
  8  9  1  0  0  0
  8 48  1  0  0  0
  8 49  1  0  0  0
  9 10  1  0  0  0
  9 13  1  0  0  0
 10 11  1  0  0  0
 10 50  1  0  0  0
 10 51  1  0  0  0
 11 12  3  0  0  0
 12 52  1  0  0  0
 13 18  1  0  0  0
 13 14  2  0  0  0
 14 15  1  0  0  0
 14 53  1  0  0  0
 15 16  2  0  0  0
 15 54  1  0  0  0
 16 17  1  0  0  0
 16 20  1  0  0  0
 17 18  2  0  0  0
 17 19  1  0  0  0
 18 55  1  0  0  0
 20 21  2  0  0  0
 20 22  1  0  0  0
 22 23  1  0  0  0
 22 56  1  0  0  0
 23 41  1  0  0  0
 23 24  1  0  0  0
 23 32  1  0  0  0
 24 25  1  0  0  0
 24 57  1  0  0  0
 24 58  1  0  0  0
 25 26  1  0  0  0
 25 59  1  0  0  0
 25 60  1  0  0  0
 26 27  1  0  0  0
 27 28  1  0  0  0
 27 31  2  0  0  0
 28 29  2  0  0  0
 29 30  1  0  0  0
 30 42  1  0  0  0
 30 31  1  0  0  0
 32 33  2  0  0  0
 32 34  1  0  0  0
 34 61  1  0  0  0
 35 40  2  0  0  0
 35 36  1  0  0  0
 36 37  2  0  0  0
 37 38  1  0  0  0
 37 39  1  0  0  0
 38 65  1  0  0  0
 39 62  1  0  0  0
 39 63  1  0  0  0
 39 64  1  0  0  0
M  END
> <s_m_entry_id>
41859

> <s_m_entry_name>
ligand_docking-pose.219

> <s_m_Source_Path>
/home/csk/Desktop/cluster/DUD-E-result/tysy

> <s_m_Source_File>
ligand_docking-pose.sdf

> <i_m_Source_File_Index>
219

> <i_lp_mmshare_version>
53161

> <i_f3d_flags>
0

> <r_lp_tautomer_probability>
0.0232102

> <s_lp_Force_Field>
OPLS_2005

> <r_lp_Energy>
21.230259

> <b_lp_Chiralities_Consistent>
1

> <s_lp_Variant>
207360-4

> <s_i_glide_gridfile>
glide-grid_1syn

> <i_i_glide_lignum>
304

> <i_i_glide_rotatable_bonds>
14

> <r_i_docking_score>
-7.54427096620084

> <r_i_glide_ligand_efficiency>
-0.188606774155021

> <r_i_glide_ligand_efficiency_sa>
-0.645026093577599

> <r_i_glide_ligand_efficiency_ln>
-1.60897097910709

> <r_i_glide_gscore>
-7.54427096620084

> <r_i_glide_lipo>
-3.31855911877386

> <r_i_glide_hbond>
-0.32

> <r_i_glide_metal>
0

> <r_i_glide_rewards>
-0.702591434721409

> <r_i_glide_evdw>
-60.6916732788086

> <r_i_glide_ecoul>
-5.51098585128784

> <r_i_glide_erotb>
0.699182307232501

> <r_i_glide_esite>
-0.0410711783044662

> <r_i_glide_emodel>
-87.6524539135178

> <r_i_glide_energy>
-66.2026591300964

> <r_i_glide_einternal>
12.3577795028687

> <i_i_glide_confnum>
33

> <i_i_glide_posenum>
96

> <r_i_glide_eff_state_penalty>
0

> <s_user_duplicate_titles>
207360

> <s_m_subgroup_title>
dock_pv

> <s_m_subgroupid>
dock_pv1

> <b_m_subgroup_collapsed>
0

$$$$
184179
                    3D
 Schrodinger Suite 2021-1.
 53 55  0  0  1  0            999 V2000
   18.8384   15.3646   34.6441 C   0  0  0  0  0  0
   17.8685   14.3835   34.1726 N   0  0  0  0  0  0
   17.8570   14.1717   32.7211 C   0  0  0  0  0  0
   16.8143   15.0067   31.9630 C   0  0  0  0  0  0
   16.6354   14.7480   30.6037 C   0  0  0  0  0  0
   15.6810   15.4321   29.8548 C   0  0  0  0  0  0
   14.8593   16.4046   30.4680 C   0  0  0  0  0  0
   15.0244   16.6857   31.8587 C   0  0  0  0  0  0
   16.0227   15.9806   32.5862 C   0  0  0  0  0  0
   14.1481   17.6717   32.4092 C   0  0  0  0  0  0
   13.2189   18.2929   31.6472 N   0  0  0  0  0  0
   13.1564   17.9552   30.3460 C   0  0  0  0  0  0
   13.9274   17.0466   29.7105 N   0  0  0  0  0  0
   12.1920   18.5957   29.5909 N   0  0  0  0  0  0
   14.2823   17.9558   33.7429 O   0  0  0  0  0  0
   17.1433   13.5846   35.0255 C   0  0  0  0  0  0
   17.2284   12.2090   35.1913 C   0  0  0  0  0  0
   16.2397   11.6994   36.0432 C   0  0  0  0  0  0
   15.3887   12.6844   36.5608 C   0  0  0  0  0  0
   15.8412   14.2569   35.9608 S   0  0  0  0  0  0
   14.2145   12.5350   37.3938 C   0  0  0  0  0  0
   13.3849   13.4357   37.5360 O   0  0  0  0  0  0
   14.1317   11.3523   38.0281 N   0  0  0  0  0  0
   13.0187   10.8958   38.8715 C   0  0  2  0  0  0
   13.2808   11.1773   40.3795 C   0  0  0  0  0  0
   13.3882   12.6702   40.7697 C   0  0  0  0  0  0
   13.6212   12.8953   42.2683 C   0  0  0  0  0  0
   12.9917   13.7103   42.9379 O   0  0  0  0  0  0
   14.5924   12.0945   42.7910 O   0  0  0  0  0  0
   12.7882    9.3891   38.6252 C   0  0  0  0  0  0
   13.6366    8.6305   38.1994 O   0  0  0  0  0  0
   11.5126    9.0501   38.9738 O   0  0  0  0  0  0
   12.1160   11.4233   38.5547 H   0  0  0  0  0  0
   18.5256   15.8276   35.5785 H   0  0  0  0  0  0
   19.8060   14.8845   34.7919 H   0  0  0  0  0  0
   18.9887   16.1551   33.9079 H   0  0  0  0  0  0
   18.8475   14.3645   32.3034 H   0  0  0  0  0  0
   17.6574   13.1175   32.5170 H   0  0  0  0  0  0
   17.2395   13.9940   30.1188 H   0  0  0  0  0  0
   15.5529   15.2151   28.8036 H   0  0  0  0  0  0
   16.1547   16.1917   33.6349 H   0  0  0  0  0  0
   11.5207   19.1929   30.0557 H   0  0  0  0  0  0
   12.1064   18.3730   28.6134 H   0  0  0  0  0  0
   14.9386   17.4164   34.1811 H   0  0  0  0  0  0
   17.9601   11.5945   34.6864 H   0  0  0  0  0  0
   16.1438   10.6442   36.2531 H   0  0  0  0  0  0
   14.8307   10.6504   37.8385 H   0  0  0  0  0  0
   14.1923   10.6591   40.6802 H   0  0  0  0  0  0
   12.4830   10.7351   40.9790 H   0  0  0  0  0  0
   12.4771   13.1935   40.4767 H   0  0  0  0  0  0
   14.1923   13.1548   40.2225 H   0  0  0  0  0  0
   14.7203   12.2275   43.7375 H   0  0  0  0  0  0
   10.9754    9.8031   39.2216 H   0  0  0  0  0  0
  1  2  1  0  0  0
  1 34  1  0  0  0
  1 35  1  0  0  0
  1 36  1  0  0  0
  2  3  1  0  0  0
  2 16  1  0  0  0
  3  4  1  0  0  0
  3 37  1  0  0  0
  3 38  1  0  0  0
  4  9  1  0  0  0
  4  5  2  0  0  0
  5  6  1  0  0  0
  5 39  1  0  0  0
  6  7  2  0  0  0
  6 40  1  0  0  0
  7 13  1  0  0  0
  7  8  1  0  0  0
  8  9  2  0  0  0
  8 10  1  0  0  0
  9 41  1  0  0  0
 10 11  2  0  0  0
 10 15  1  0  0  0
 11 12  1  0  0  0
 12 13  2  0  0  0
 12 14  1  0  0  0
 14 42  1  0  0  0
 14 43  1  0  0  0
 15 44  1  0  0  0
 16 20  1  0  0  0
 16 17  2  0  0  0
 17 18  1  0  0  0
 17 45  1  0  0  0
 18 19  2  0  0  0
 18 46  1  0  0  0
 19 20  1  0  0  0
 19 21  1  0  0  0
 21 22  2  0  0  0
 21 23  1  0  0  0
 23 24  1  0  0  0
 23 47  1  0  0  0
 24 33  1  0  0  0
 24 25  1  0  0  0
 24 30  1  0  0  0
 25 26  1  0  0  0
 25 48  1  0  0  0
 25 49  1  0  0  0
 26 27  1  0  0  0
 26 50  1  0  0  0
 26 51  1  0  0  0
 27 28  2  0  0  0
 27 29  1  0  0  0
 29 52  1  0  0  0
 30 31  2  0  0  0
 30 32  1  0  0  0
 32 53  1  0  0  0
M  END
> <s_m_entry_id>
41860

> <s_m_entry_name>
ligand_docking-pose.220

> <s_m_Source_Path>
/home/csk/Desktop/cluster/DUD-E-result/tysy

> <s_m_Source_File>
ligand_docking-pose.sdf

> <i_m_Source_File_Index>
220

> <i_lp_mmshare_version>
53161

> <i_f3d_flags>
0

> <r_lp_tautomer_probability>
1

> <s_lp_Force_Field>
OPLS_2005

> <r_lp_Energy>
5.353524

> <b_lp_Chiralities_Consistent>
1

> <s_lp_Variant>
184179-1

> <s_i_glide_gridfile>
glide-grid_1syn

> <i_i_glide_lignum>
914

> <i_i_glide_rotatable_bonds>
13

> <r_i_docking_score>
-7.54389781874475

> <r_i_glide_ligand_efficiency>
-0.235746806835773

> <r_i_glide_ligand_efficiency_sa>
-0.748449457473859

> <r_i_glide_ligand_efficiency_ln>
-1.68928436050489

> <r_i_glide_gscore>
-7.54389781874475

> <r_i_glide_lipo>
-3.48664451773542

> <r_i_glide_hbond>
-0.225822982330196

> <r_i_glide_metal>
0

> <r_i_glide_rewards>
-1.16730699570941

> <r_i_glide_evdw>
-56.4401245117188

> <r_i_glide_ecoul>
-5.05947637557983

> <r_i_glide_erotb>
0.953060981468716

> <r_i_glide_esite>
-0.0362566225155277

> <r_i_glide_emodel>
-82.2819493580051

> <r_i_glide_energy>
-61.4996008872986

> <r_i_glide_einternal>
11.2279996871948

> <i_i_glide_confnum>
122

> <i_i_glide_posenum>
127

> <r_i_glide_eff_state_penalty>
0

> <s_user_duplicate_titles>
184179

> <s_m_subgroup_title>
dock_pv

> <s_m_subgroupid>
dock_pv1

> <b_m_subgroup_collapsed>
0

$$$$
208597
                    3D
 Schrodinger Suite 2021-1.
 67 70  0  0  1  0            999 V2000
   17.1759   12.0332   35.9894 C   0  0  0  0  0  0
   17.2625   13.3198   35.1913 C   0  0  0  0  0  0
   16.2661   14.3173   35.1573 C   0  0  0  0  0  0
   15.0077   14.5839   35.8102 C   0  0  0  0  0  0
   14.5197   15.7210   35.1895 C   0  0  0  0  0  0
   15.4166   16.2356   34.2821 N   0  0  0  0  0  0
   16.5213   15.3959   34.2540 C   0  0  0  0  0  0
   17.6340   15.5488   33.5250 N   0  0  0  0  0  0
   18.5220   14.5364   33.6742 C   0  0  0  0  0  0
   18.3903   13.4355   34.4469 N   0  0  0  0  0  0
   19.6958   14.6256   32.9501 N   0  0  0  0  0  0
   15.2179   17.4626   33.5118 C   0  0  0  0  0  0
   14.6537   17.2810   32.1030 C   0  0  0  0  0  0
   13.7042   18.1937   31.6311 C   0  0  0  0  0  0
   13.2222   18.0947   30.3289 C   0  0  0  0  0  0
   13.6996   17.0874   29.4925 C   0  0  0  0  0  0
   14.6311   16.1601   29.9552 C   0  0  0  0  0  0
   15.1086   16.2579   31.2587 C   0  0  0  0  0  0
   14.3763   13.8158   36.9512 C   0  0  0  0  0  0
   13.6766   12.5061   36.5252 C   0  0  0  0  0  0
   13.3133   11.5466   37.6621 C   0  0  0  0  0  0
   13.3465   11.9349   39.0079 C   0  0  0  0  0  0
   12.9981   11.0321   40.0091 C   0  0  0  0  0  0
   12.5946    9.7243   39.6932 C   0  0  0  0  0  0
   12.5681    9.3426   38.3399 C   0  0  0  0  0  0
   12.9196   10.2470   37.3396 C   0  0  0  0  0  0
   12.1889    8.7786   40.8090 C   0  0  0  0  0  0
   12.1949    9.1625   41.9805 O   0  0  0  0  0  0
   11.8201    7.5295   40.4534 N   0  0  0  0  0  0
   11.3994    6.4053   41.3125 C   0  0  1  0  0  0
   12.6191    5.5898   41.8246 C   0  0  0  0  0  0
   13.4326    4.8936   40.7100 C   0  0  0  0  0  0
   14.6726    4.1614   41.2323 C   0  0  0  0  0  0
   15.8019    4.3087   40.7714 O   0  0  0  0  0  0
   14.3914    3.3038   42.2523 O   0  0  0  0  0  0
   10.3768    6.7987   42.4120 C   0  0  0  0  0  0
    9.1804    6.8294   42.2163 O   0  0  0  0  0  0
   10.9926    7.0989   43.5959 O   0  0  0  0  0  0
   10.8383    5.7330   40.6642 H   0  0  0  0  0  0
   16.4341   11.3705   35.5472 H   0  0  0  0  0  0
   18.1265   11.4996   36.0030 H   0  0  0  0  0  0
   16.8875   12.2345   37.0179 H   0  0  0  0  0  0
   13.5924   16.2509   35.3570 H   0  0  0  0  0  0
   20.2059   13.7585   32.8238 H   0  0  0  0  0  0
   19.7873   15.3710   32.2700 H   0  0  0  0  0  0
   14.5683   18.1201   34.0945 H   0  0  0  0  0  0
   16.1800   17.9742   33.4339 H   0  0  0  0  0  0
   13.3509   18.9957   32.2650 H   0  0  0  0  0  0
   12.4939   18.8075   29.9634 H   0  0  0  0  0  0
   13.3429   17.0269   28.4740 H   0  0  0  0  0  0
   14.9906   15.3789   29.3030 H   0  0  0  0  0  0
   15.8487   15.5450   31.5956 H   0  0  0  0  0  0
   13.6532   14.4521   37.4636 H   0  0  0  0  0  0
   15.1519   13.6102   37.6872 H   0  0  0  0  0  0
   14.3115   11.9705   35.8164 H   0  0  0  0  0  0
   12.7543   12.7556   35.9950 H   0  0  0  0  0  0
   13.6416   12.9333   39.2942 H   0  0  0  0  0  0
   13.0364   11.3667   41.0343 H   0  0  0  0  0  0
   12.2659    8.3513   38.0332 H   0  0  0  0  0  0
   12.8842    9.9325   36.3060 H   0  0  0  0  0  0
   11.7997    7.3261   39.4661 H   0  0  0  0  0  0
   12.2638    4.8327   42.5277 H   0  0  0  0  0  0
   13.2926    6.2281   42.3876 H   0  0  0  0  0  0
   13.7657    5.6278   39.9763 H   0  0  0  0  0  0
   12.8084    4.1803   40.1704 H   0  0  0  0  0  0
   13.4607    3.3070   42.4791 H   0  0  0  0  0  0
   11.9509    7.1340   43.5230 H   0  0  0  0  0  0
  1  2  1  0  0  0
  1 40  1  0  0  0
  1 41  1  0  0  0
  1 42  1  0  0  0
  2 10  1  0  0  0
  2  3  2  0  0  0
  3  7  1  0  0  0
  3  4  1  0  0  0
  4  5  2  0  0  0
  4 19  1  0  0  0
  5  6  1  0  0  0
  5 43  1  0  0  0
  6  7  1  0  0  0
  6 12  1  0  0  0
  7  8  2  0  0  0
  8  9  1  0  0  0
  9 10  2  0  0  0
  9 11  1  0  0  0
 11 44  1  0  0  0
 11 45  1  0  0  0
 12 13  1  0  0  0
 12 46  1  0  0  0
 12 47  1  0  0  0
 13 18  1  0  0  0
 13 14  2  0  0  0
 14 15  1  0  0  0
 14 48  1  0  0  0
 15 16  2  0  0  0
 15 49  1  0  0  0
 16 17  1  0  0  0
 16 50  1  0  0  0
 17 18  2  0  0  0
 17 51  1  0  0  0
 18 52  1  0  0  0
 19 20  1  0  0  0
 19 53  1  0  0  0
 19 54  1  0  0  0
 20 21  1  0  0  0
 20 55  1  0  0  0
 20 56  1  0  0  0
 21 26  1  0  0  0
 21 22  2  0  0  0
 22 23  1  0  0  0
 22 57  1  0  0  0
 23 24  2  0  0  0
 23 58  1  0  0  0
 24 25  1  0  0  0
 24 27  1  0  0  0
 25 26  2  0  0  0
 25 59  1  0  0  0
 26 60  1  0  0  0
 27 28  2  0  0  0
 27 29  1  0  0  0
 29 30  1  0  0  0
 29 61  1  0  0  0
 30 39  1  0  0  0
 30 31  1  0  0  0
 30 36  1  0  0  0
 31 32  1  0  0  0
 31 62  1  0  0  0
 31 63  1  0  0  0
 32 33  1  0  0  0
 32 64  1  0  0  0
 32 65  1  0  0  0
 33 34  2  0  0  0
 33 35  1  0  0  0
 35 66  1  0  0  0
 36 37  2  0  0  0
 36 38  1  0  0  0
 38 67  1  0  0  0
M  END
> <s_m_entry_id>
41862

> <s_m_entry_name>
ligand_docking-pose.222

> <s_m_Source_Path>
/home/csk/Desktop/cluster/DUD-E-result/tysy

> <s_m_Source_File>
ligand_docking-pose.sdf

> <i_m_Source_File_Index>
222

> <i_lp_mmshare_version>
53161

> <i_f3d_flags>
0

> <r_lp_tautomer_probability>
1

> <s_lp_Force_Field>
OPLS_2005

> <r_lp_Energy>
11.558628

> <b_lp_Chiralities_Consistent>
1

> <s_lp_Variant>
208597-1

> <s_i_glide_gridfile>
glide-grid_1syn

> <i_i_glide_lignum>
169

> <i_i_glide_rotatable_bonds>
14

> <r_i_docking_score>
-7.52881405636907

> <r_i_glide_ligand_efficiency>
-0.198126685693923

> <r_i_glide_ligand_efficiency_sa>
-0.666097043925895

> <r_i_glide_ligand_efficiency_ln>
-1.62343378582389

> <r_i_glide_gscore>
-7.52881405636907

> <r_i_glide_lipo>
-3.50963691466794

> <r_i_glide_hbond>
-0.32

> <r_i_glide_metal>
0

> <r_i_glide_rewards>
-0.896547426742324

> <r_i_glide_evdw>
-50.0595703125

> <r_i_glide_ecoul>
-7.49777126312256

> <r_i_glide_erotb>
0.926397057989172

> <r_i_glide_esite>
-0.101382567854595

> <r_i_glide_emodel>
-82.4408404249308

> <r_i_glide_energy>
-57.5573415756226

> <r_i_glide_einternal>
7.57898759841919

> <i_i_glide_confnum>
95

> <i_i_glide_posenum>
251

> <r_i_glide_eff_state_penalty>
0

> <s_user_duplicate_titles>
208597

> <s_m_subgroup_title>
dock_pv

> <s_m_subgroupid>
dock_pv1

> <b_m_subgroup_collapsed>
0

$$$$
465
                    3D
 Schrodinger Suite 2021-1.
 62 64  0  0  1  0            999 V2000
   17.1935   13.7920   30.7622 C   0  0  0  0  0  0
   16.5131   14.9693   31.4339 C   0  0  0  0  0  0
   15.4653   15.6051   30.7499 C   0  0  0  0  0  0
   14.7851   16.6636   31.3428 C   0  0  0  0  0  0
   15.1626   17.0862   32.6152 C   0  0  0  0  0  0
   16.2138   16.4841   33.2881 C   0  0  0  0  0  0
   16.8860   15.4034   32.7240 C   0  0  0  0  0  0
   18.0581   14.8089   33.5106 C   0  0  0  0  0  0
   17.7836   13.5135   34.1624 N   0  0  0  0  0  0
   18.7987   12.4912   33.8351 C   0  0  0  0  0  0
   18.9923   11.3965   34.7908 C   0  0  0  0  0  0
   19.2010   10.5083   35.5911 C   0  0  0  0  0  0
   16.7271   13.3473   35.1176 C   0  0  0  0  0  0
   16.2062   14.4401   35.8156 C   0  0  0  0  0  0
   15.1527   14.2920   36.7088 C   0  0  0  0  0  0
   14.6101   13.0445   37.0076 C   0  0  0  0  0  0
   15.1070   11.9333   36.3114 C   0  0  0  0  0  0
   16.1301   12.0975   35.3730 C   0  0  0  0  0  0
   14.6258   10.6871   36.5306 F   0  0  0  0  0  0
   13.5979   12.9539   38.1256 C   0  0  0  0  0  0
   13.6087   13.7865   39.0319 O   0  0  0  0  0  0
   12.7062   11.9531   38.0665 N   0  0  0  0  0  0
   11.6634   11.6318   39.0593 C   0  0  2  0  0  0
   10.5327   12.7245   39.2495 C   0  0  0  0  0  0
   10.1457   13.4321   37.9315 C   0  0  0  0  0  0
   10.6614   13.7732   40.3843 C   0  0  0  0  0  0
   12.2850   11.1147   40.3893 C   0  0  0  0  0  0
   12.5224   11.7913   41.3697 O   0  0  0  0  0  0
   12.5507    9.7758   40.2860 O   0  0  0  0  0  0
   14.3993   18.2061   33.2587 C   0  0  0  0  0  0
   13.4344   18.6994   32.4543 N   0  0  0  0  0  0
   13.1219   18.2760   31.1891 C   0  0  0  0  0  0
   13.7489   17.2987   30.6381 N   0  0  0  0  0  0
   12.0486   19.0185   30.4439 C   0  0  0  0  0  0
   14.6052   18.6279   34.3907 O   0  0  0  0  0  0
   11.1490   10.7814   38.6084 H   0  0  0  0  0  0
   16.6259   13.4350   29.9018 H   0  0  0  0  0  0
   18.2025   14.0542   30.4415 H   0  0  0  0  0  0
   17.2603   12.9514   31.4484 H   0  0  0  0  0  0
   15.1730   15.2818   29.7635 H   0  0  0  0  0  0
   16.5063   16.8655   34.2494 H   0  0  0  0  0  0
   18.4064   15.5131   34.2660 H   0  0  0  0  0  0
   18.8939   14.7313   32.8134 H   0  0  0  0  0  0
   18.5903   12.0344   32.8685 H   0  0  0  0  0  0
   19.7870   12.9603   33.7427 H   0  0  0  0  0  0
   19.3917    9.8280   36.3820 H   0  0  0  0  0  0
   16.6286   15.4237   35.7081 H   0  0  0  0  0  0
   14.7605   15.1710   37.1912 H   0  0  0  0  0  0
   16.4273   11.2285   34.8068 H   0  0  0  0  0  0
   12.7682   11.3298   37.2756 H   0  0  0  0  0  0
    9.6372   12.1584   39.5126 H   0  0  0  0  0  0
   10.9378   14.0934   37.5812 H   0  0  0  0  0  0
    9.2503   14.0431   38.0548 H   0  0  0  0  0  0
    9.9363   12.7120   37.1394 H   0  0  0  0  0  0
   11.6069   14.3084   40.3457 H   0  0  0  0  0  0
    9.8652   14.5156   40.3296 H   0  0  0  0  0  0
   10.5949   13.3290   41.3724 H   0  0  0  0  0  0
   12.3574    9.4204   39.4171 H   0  0  0  0  0  0
   11.4289   18.3372   29.8590 H   0  0  0  0  0  0
   11.3926   19.5538   31.1308 H   0  0  0  0  0  0
   12.4823   19.7481   29.7585 H   0  0  0  0  0  0
   12.9326   19.4706   32.8680 H   0  0  0  0  0  0
  1 37  1  0  0  0
  1 38  1  0  0  0
  1 39  1  0  0  0
  1  2  1  0  0  0
  2  7  1  0  0  0
  2  3  2  0  0  0
  3 40  1  0  0  0
  3  4  1  0  0  0
  4  5  2  0  0  0
  4 33  1  0  0  0
  5 30  1  0  0  0
  5  6  1  0  0  0
  6 41  1  0  0  0
  6  7  2  0  0  0
  7  8  1  0  0  0
  8  9  1  0  0  0
  8 42  1  0  0  0
  8 43  1  0  0  0
  9 10  1  0  0  0
  9 13  1  0  0  0
 10 11  1  0  0  0
 10 44  1  0  0  0
 10 45  1  0  0  0
 11 12  3  0  0  0
 12 46  1  0  0  0
 13 18  1  0  0  0
 13 14  2  0  0  0
 14 15  1  0  0  0
 14 47  1  0  0  0
 15 16  2  0  0  0
 15 48  1  0  0  0
 16 17  1  0  0  0
 16 20  1  0  0  0
 17 18  2  0  0  0
 17 19  1  0  0  0
 18 49  1  0  0  0
 20 21  2  0  0  0
 20 22  1  0  0  0
 22 23  1  0  0  0
 22 50  1  0  0  0
 23 36  1  0  0  0
 23 24  1  0  0  0
 23 27  1  0  0  0
 24 25  1  0  0  0
 24 26  1  0  0  0
 24 51  1  0  0  0
 25 52  1  0  0  0
 25 53  1  0  0  0
 25 54  1  0  0  0
 26 55  1  0  0  0
 26 56  1  0  0  0
 26 57  1  0  0  0
 27 28  2  0  0  0
 27 29  1  0  0  0
 29 58  1  0  0  0
 30 35  2  0  0  0
 30 31  1  0  0  0
 31 32  1  0  0  0
 31 62  1  0  0  0
 32 33  2  0  0  0
 32 34  1  0  0  0
 34 59  1  0  0  0
 34 60  1  0  0  0
 34 61  1  0  0  0
M  END
> <s_m_entry_id>
41864

> <s_m_entry_name>
ligand_docking-pose.224

> <s_m_Source_Path>
/home/csk/Desktop/cluster/DUD-E-result/tysy

> <s_m_Source_File>
ligand_docking-pose.sdf

> <i_m_Source_File_Index>
224

> <i_lp_mmshare_version>
53161

> <i_f3d_flags>
0

> <r_lp_tautomer_probability>
0.883938

> <s_lp_Force_Field>
OPLS_2005

> <r_lp_Energy>
29.094102

> <b_lp_Chiralities_Consistent>
1

> <s_lp_Variant>
465-1

> <s_i_glide_gridfile>
glide-grid_1syn

> <i_i_glide_lignum>
273

> <i_i_glide_rotatable_bonds>
11

> <r_i_docking_score>
-7.51936718961724

> <r_i_glide_ligand_efficiency>
-0.214839062560493

> <r_i_glide_ligand_efficiency_sa>
-0.702752818821282

> <r_i_glide_ligand_efficiency_ln>
-1.65066798148432

> <r_i_glide_gscore>
-7.51936718961724

> <r_i_glide_lipo>
-3.83790165616466

> <r_i_glide_hbond>
0

> <r_i_glide_metal>
0

> <r_i_glide_rewards>
-0.732626814368564

> <r_i_glide_evdw>
-53.8524627685547

> <r_i_glide_ecoul>
-6.86613845825195

> <r_i_glide_erotb>
0.796522005432626

> <r_i_glide_esite>
-0.0228168173511091

> <r_i_glide_emodel>
-88.4798090057681

> <r_i_glide_energy>
-60.7186012268066

> <r_i_glide_einternal>
5.27892017364502

> <i_i_glide_confnum>
16

> <i_i_glide_posenum>
393

> <r_i_glide_eff_state_penalty>
0

> <s_user_duplicate_titles>
465

> <s_m_subgroup_title>
dock_pv

> <s_m_subgroupid>
dock_pv1

> <b_m_subgroup_collapsed>
0

$$$$
207402
                    3D
 Schrodinger Suite 2021-1.
 63 66  0  0  1  0            999 V2000
   18.4139   13.6581   34.2842 C   0  0  0  0  0  0
   17.1743   14.5016   34.0148 C   0  0  0  0  0  0
   17.0067   15.0278   32.7282 C   0  0  0  0  0  0
   15.8990   15.8105   32.4323 C   0  0  0  0  0  0
   14.9908   16.1545   33.4346 C   0  0  0  0  0  0
   15.1396   15.6198   34.7181 C   0  0  0  0  0  0
   16.1986   14.7482   35.0073 C   0  0  0  0  0  0
   16.2751   14.1032   36.3970 C   0  0  0  0  0  0
   15.0292   13.4167   36.8074 N   0  0  0  0  0  0
   14.0632   14.1652   37.6241 C   0  0  0  0  0  0
   12.6537   13.8280   37.3163 C   0  0  0  0  0  0
   11.4963   13.5501   37.0438 C   0  0  0  0  0  0
   15.0743   12.0018   36.9213 C   0  0  0  0  0  0
   14.4285   11.3002   37.9531 C   0  0  0  0  0  0
   14.4066    9.9100   37.9845 C   0  0  0  0  0  0
   15.0329    9.1640   36.9767 C   0  0  0  0  0  0
   15.7154    9.8695   35.9659 C   0  0  0  0  0  0
   15.7347   11.2567   35.9495 C   0  0  0  0  0  0
   16.3491    9.2453   34.9523 F   0  0  0  0  0  0
   14.9368    7.6533   36.9407 C   0  0  0  0  0  0
   15.3916    7.0280   35.9910 O   0  0  0  0  0  0
   14.3254    7.0316   37.9678 N   0  0  0  0  0  0
   14.0837    5.5809   38.0643 C   0  0  2  0  0  0
   12.9508    5.2558   39.0719 C   0  0  0  0  0  0
   13.3923    5.8296   40.7911 S   0  0  2  0  0  0
   13.5132    4.5692   41.6484 O   0  0  0  0  0  0
   11.8061    6.6134   41.3080 C   0  0  0  0  0  0
   11.0244    7.3479   40.4509 N   0  0  0  0  0  0
    9.9771    7.8565   41.1007 N   0  0  0  0  0  0
   10.1445    7.4288   42.4042 N   0  0  0  0  0  0
   11.2995    6.6568   42.5148 N   0  0  0  0  0  0
   15.3642    4.7571   38.3589 C   0  0  0  0  0  0
   16.1930    5.0725   39.1901 O   0  0  0  0  0  0
   15.3928    3.6277   37.5911 O   0  0  0  0  0  0
   13.7923   17.0295   33.0936 C   0  0  0  0  0  0
   13.6487   17.3499   31.7380 N   0  0  0  0  0  0
   14.4876   16.9641   30.8565 C   0  0  0  0  0  0
   15.6265   16.2279   31.1259 N   0  0  0  0  0  0
   14.2278   17.3231   29.4102 C   0  0  0  0  0  0
   13.0268   17.3757   33.9901 O   0  0  0  0  0  0
   13.7186    5.2840   37.0775 H   0  0  0  0  0  0
   11.1811    7.4962   39.4650 H   0  0  0  0  0  0
   18.1557   12.6088   34.4188 H   0  0  0  0  0  0
   19.1432   13.7262   33.4746 H   0  0  0  0  0  0
   18.9165   13.9999   35.1879 H   0  0  0  0  0  0
   17.7206   14.7964   31.9514 H   0  0  0  0  0  0
   14.4067   15.8476   35.4774 H   0  0  0  0  0  0
   17.1229   13.4235   36.4666 H   0  0  0  0  0  0
   16.5025   14.8976   37.1057 H   0  0  0  0  0  0
   14.2363   13.9842   38.6848 H   0  0  0  0  0  0
   14.1922   15.2336   37.4862 H   0  0  0  0  0  0
   10.4870   13.3182   36.7885 H   0  0  0  0  0  0
   13.9151   11.8209   38.7451 H   0  0  0  0  0  0
   13.8665    9.4387   38.7919 H   0  0  0  0  0  0
   16.2196   11.7518   35.1241 H   0  0  0  0  0  0
   14.0415    7.5805   38.7611 H   0  0  0  0  0  0
   12.0157    5.6936   38.7292 H   0  0  0  0  0  0
   12.7674    4.1805   39.1178 H   0  0  0  0  0  0
   14.7015    3.5875   36.9190 H   0  0  0  0  0  0
   13.2650   17.8205   29.2822 H   0  0  0  0  0  0
   14.9915   17.9973   29.0291 H   0  0  0  0  0  0
   14.2201   16.4323   28.7824 H   0  0  0  0  0  0
   16.2359   15.9392   30.3801 H   0  0  0  0  0  0
  1 43  1  0  0  0
  1 44  1  0  0  0
  1 45  1  0  0  0
  1  2  1  0  0  0
  2  7  1  0  0  0
  2  3  2  0  0  0
  3 46  1  0  0  0
  3  4  1  0  0  0
  4  5  2  0  0  0
  4 38  1  0  0  0
  5 35  1  0  0  0
  5  6  1  0  0  0
  6 47  1  0  0  0
  6  7  2  0  0  0
  7  8  1  0  0  0
  8  9  1  0  0  0
  8 48  1  0  0  0
  8 49  1  0  0  0
  9 10  1  0  0  0
  9 13  1  0  0  0
 10 11  1  0  0  0
 10 50  1  0  0  0
 10 51  1  0  0  0
 11 12  3  0  0  0
 12 52  1  0  0  0
 13 18  1  0  0  0
 13 14  2  0  0  0
 14 15  1  0  0  0
 14 53  1  0  0  0
 15 16  2  0  0  0
 15 54  1  0  0  0
 16 17  1  0  0  0
 16 20  1  0  0  0
 17 18  2  0  0  0
 17 19  1  0  0  0
 18 55  1  0  0  0
 20 21  2  0  0  0
 20 22  1  0  0  0
 22 23  1  0  0  0
 22 56  1  0  0  0
 23 41  1  0  0  0
 23 24  1  0  0  0
 23 32  1  0  0  0
 24 25  1  0  0  0
 24 57  1  0  0  0
 24 58  1  0  0  0
 25 26  2  0  0  0
 25 27  1  0  0  0
 27 28  1  0  0  0
 27 31  2  0  0  0
 28 42  1  0  0  0
 28 29  1  0  0  0
 29 30  2  0  0  0
 30 31  1  0  0  0
 32 33  2  0  0  0
 32 34  1  0  0  0
 34 59  1  0  0  0
 35 40  2  0  0  0
 35 36  1  0  0  0
 36 37  2  0  0  0
 37 38  1  0  0  0
 37 39  1  0  0  0
 38 63  1  0  0  0
 39 60  1  0  0  0
 39 61  1  0  0  0
 39 62  1  0  0  0
M  END
> <s_m_entry_id>
41865

> <s_m_entry_name>
ligand_docking-pose.225

> <s_m_Source_Path>
/home/csk/Desktop/cluster/DUD-E-result/tysy

> <s_m_Source_File>
ligand_docking-pose.sdf

> <i_m_Source_File_Index>
225

> <i_lp_mmshare_version>
53161

> <i_f3d_flags>
0

> <r_lp_tautomer_probability>
0.0348153

> <s_lp_Force_Field>
OPLS_2005

> <r_lp_Energy>
21.808996

> <b_lp_Chiralities_Consistent>
1

> <s_lp_Variant>
207402-5

> <s_i_glide_gridfile>
glide-grid_1syn

> <i_i_glide_lignum>
323

> <i_i_glide_rotatable_bonds>
13

> <r_i_docking_score>
-7.51477572250217

> <r_i_glide_ligand_efficiency>
-0.187869393062554

> <r_i_glide_ligand_efficiency_sa>
-0.642504285717395

> <r_i_glide_ligand_efficiency_ln>
-1.60268051163244

> <r_i_glide_gscore>
-7.51477572250217

> <r_i_glide_lipo>
-3.20802232039078

> <r_i_glide_hbond>
0

> <r_i_glide_metal>
0

> <r_i_glide_rewards>
-0.946287918013104

> <r_i_glide_evdw>
-53.9910049438477

> <r_i_glide_ecoul>
-8.44886875152588

> <r_i_glide_erotb>
0.627251395933832

> <r_i_glide_esite>
-0.0208363201108535

> <r_i_glide_emodel>
-85.2875805116974

> <r_i_glide_energy>
-62.4398736953735

> <r_i_glide_einternal>
7.94575881958008

> <i_i_glide_confnum>
29

> <i_i_glide_posenum>
358

> <r_i_glide_eff_state_penalty>
0

> <s_user_duplicate_titles>
207402

> <s_m_subgroup_title>
dock_pv

> <s_m_subgroupid>
dock_pv1

> <b_m_subgroup_collapsed>
0

$$$$
269095
                    3D
 Schrodinger Suite 2021-1.
 61 64  0  0  1  0            999 V2000
   10.5680   10.9357   37.8786 C   0  0  0  0  0  0
   11.6489   10.9535   38.9509 C   0  0  0  0  0  0
   11.6401   11.9857   39.8990 C   0  0  0  0  0  0
   12.5808   12.0023   40.9235 C   0  0  0  0  0  0
   13.5049   10.9639   41.0296 C   0  0  0  0  0  0
   13.5678    9.9598   40.0641 C   0  0  0  0  0  0
   12.6573    9.9674   39.0010 C   0  0  0  0  0  0
   12.7831    8.8646   37.9463 C   0  0  0  0  0  0
   13.2141    9.2932   36.6042 N   0  0  0  0  0  0
   13.1718    8.2224   35.6092 C   0  0  0  0  0  0
   14.2655   10.2299   36.4608 C   0  0  0  0  0  0
   15.5404    9.8655   36.0071 C   0  0  0  0  0  0
   16.5065   10.8366   35.7345 C   0  0  0  0  0  0
   16.2129   12.2007   35.8886 C   0  0  0  0  0  0
   14.9507   12.5608   36.3887 C   0  0  0  0  0  0
   14.0015   11.5840   36.6683 C   0  0  0  0  0  0
   14.5922   13.8564   36.5601 F   0  0  0  0  0  0
   17.1808   13.2692   35.4361 C   0  0  0  0  0  0
   17.1810   14.3916   35.9438 O   0  0  0  0  0  0
   17.9655   12.9509   34.3899 N   0  0  0  0  0  0
   18.6412   13.9259   33.5320 C   0  0  0  0  0  0
   17.6598   14.5684   32.5590 C   0  0  0  0  0  0
   17.5256   14.0701   31.2607 C   0  0  0  0  0  0
   16.5917   14.6277   30.3896 C   0  0  0  0  0  0
   15.7918   15.6914   30.8085 C   0  0  0  0  0  0
   15.9325   16.2289   32.0973 C   0  0  0  0  0  0
   16.8870   15.6646   32.9565 C   0  0  0  0  0  0
   15.1045   17.3787   32.5350 N   0  3  0  0  0  0
   15.3909   17.9358   33.5919 O   0  5  0  0  0  0
   14.1740   17.7345   31.8172 O   0  0  0  0  0  0
   14.4650   10.9951   42.1928 C   0  0  0  0  0  0
   14.2854   12.0485   43.0023 N   0  0  0  0  0  0
   13.3645   13.0354   42.8550 C   0  0  0  0  0  0
   12.5402   13.0454   41.8693 N   0  0  0  0  0  0
   13.2691   14.0636   43.9516 C   0  0  0  0  0  0
   12.9920   13.4281   45.1910 O   0  0  0  0  0  0
   15.3945   10.2287   42.3908 O   0  0  0  0  0  0
    9.9724   11.8483   37.8788 H   0  0  0  0  0  0
   11.0040   10.8373   36.8863 H   0  0  0  0  0  0
    9.9055   10.0835   38.0284 H   0  0  0  0  0  0
   10.9012   12.7700   39.8461 H   0  0  0  0  0  0
   14.3223    9.1858   40.1277 H   0  0  0  0  0  0
   11.8146    8.3686   37.8672 H   0  0  0  0  0  0
   13.4788    8.1028   38.3021 H   0  0  0  0  0  0
   13.3481    8.6162   34.6067 H   0  0  0  0  0  0
   13.9253    7.4599   35.8112 H   0  0  0  0  0  0
   12.1927    7.7440   35.5965 H   0  0  0  0  0  0
   15.7820    8.8288   35.8335 H   0  0  0  0  0  0
   17.4700   10.5165   35.3628 H   0  0  0  0  0  0
   13.0255   11.9083   36.9803 H   0  0  0  0  0  0
   17.9388   12.0052   34.0431 H   0  0  0  0  0  0
   19.4397   13.4280   32.9790 H   0  0  0  0  0  0
   19.1310   14.7002   34.1283 H   0  0  0  0  0  0
   18.1326   13.2372   30.9295 H   0  0  0  0  0  0
   16.4817   14.2272   29.3918 H   0  0  0  0  0  0
   15.0697   16.1030   30.1161 H   0  0  0  0  0  0
   17.0094   16.0605   33.9544 H   0  0  0  0  0  0
   14.1920   14.6039   44.0307 H   0  0  0  0  0  0
   12.5311   14.8203   43.7124 H   0  0  0  0  0  0
   13.7235   12.8313   45.4132 H   0  0  0  0  0  0
   14.9169   12.0607   43.7918 H   0  0  0  0  0  0
  1 38  1  0  0  0
  1 39  1  0  0  0
  1 40  1  0  0  0
  1  2  1  0  0  0
  2  7  1  0  0  0
  2  3  2  0  0  0
  3 41  1  0  0  0
  3  4  1  0  0  0
  4  5  2  0  0  0
  4 34  1  0  0  0
  5 31  1  0  0  0
  5  6  1  0  0  0
  6 42  1  0  0  0
  6  7  2  0  0  0
  7  8  1  0  0  0
  8  9  1  0  0  0
  8 43  1  0  0  0
  8 44  1  0  0  0
  9 10  1  0  0  0
  9 11  1  0  0  0
 10 45  1  0  0  0
 10 46  1  0  0  0
 10 47  1  0  0  0
 11 16  1  0  0  0
 11 12  2  0  0  0
 12 13  1  0  0  0
 12 48  1  0  0  0
 13 14  2  0  0  0
 13 49  1  0  0  0
 14 15  1  0  0  0
 14 18  1  0  0  0
 15 16  2  0  0  0
 15 17  1  0  0  0
 16 50  1  0  0  0
 18 19  2  0  0  0
 18 20  1  0  0  0
 20 21  1  0  0  0
 20 51  1  0  0  0
 21 22  1  0  0  0
 21 52  1  0  0  0
 21 53  1  0  0  0
 22 27  1  0  0  0
 22 23  2  0  0  0
 23 24  1  0  0  0
 23 54  1  0  0  0
 24 25  2  0  0  0
 24 55  1  0  0  0
 25 26  1  0  0  0
 25 56  1  0  0  0
 26 27  2  0  0  0
 26 28  1  0  0  0
 27 57  1  0  0  0
 28 29  1  0  0  0
 28 30  2  0  0  0
 31 37  2  0  0  0
 31 32  1  0  0  0
 32 33  1  0  0  0
 32 61  1  0  0  0
 33 34  2  0  0  0
 33 35  1  0  0  0
 35 36  1  0  0  0
 35 58  1  0  0  0
 35 59  1  0  0  0
 36 60  1  0  0  0
M  CHG  2  28   1  29  -1
M  END
> <s_m_entry_id>
41871

> <s_m_entry_name>
ligand_docking-pose.231

> <s_m_Source_Path>
/home/csk/Desktop/cluster/DUD-E-result/tysy

> <s_m_Source_File>
ligand_docking-pose.sdf

> <i_m_Source_File_Index>
231

> <i_lp_mmshare_version>
53161

> <i_f3d_flags>
0

> <r_lp_tautomer_probability>
0.883938

> <s_lp_Force_Field>
OPLS_2005

> <r_lp_Energy>
39.912114

> <b_lp_Chiralities_Consistent>
1

> <s_lp_Variant>
269095-1

> <s_i_glide_gridfile>
glide-grid_1syn

> <i_i_glide_lignum>
177

> <i_i_glide_rotatable_bonds>
10

> <r_i_docking_score>
-7.48898043599049

> <r_i_glide_ligand_efficiency>
-0.202404876648392

> <r_i_glide_ligand_efficiency_sa>
-0.67445795203567

> <r_i_glide_ligand_efficiency_ln>
-1.62418428995535

> <r_i_glide_gscore>
-7.48898043599049

> <r_i_glide_lipo>
-2.48560777390948

> <r_i_glide_hbond>
-0.677587724248489

> <r_i_glide_metal>
0

> <r_i_glide_rewards>
-0.99104215111885

> <r_i_glide_evdw>
-44.7796096801758

> <r_i_glide_ecoul>
-11.4189586639404

> <r_i_glide_erotb>
0.640360371610563

> <r_i_glide_esite>
-0.0232788747243787

> <r_i_glide_emodel>
-75.6984440111539

> <r_i_glide_energy>
-56.1985683441162

> <r_i_glide_einternal>
5.3571457862854

> <i_i_glide_confnum>
2

> <i_i_glide_posenum>
226

> <r_i_glide_eff_state_penalty>
0

> <s_user_duplicate_titles>
269095

> <s_m_subgroup_title>
dock_pv

> <s_m_subgroupid>
dock_pv1

> <b_m_subgroup_collapsed>
0

$$$$
27914
                    3D
 Schrodinger Suite 2021-1.
 30 31  0  0  1  0            999 V2000
   15.0452   14.6360   29.1869 C   0  0  0  0  0  0
   15.7013   15.3644   30.3775 C   0  0  0  0  0  0
   14.8852   16.5045   31.0015 C   0  0  0  0  0  0
   14.8793   16.7834   32.3913 C   0  0  0  0  0  0
   14.0301   17.8390   32.7855 C   0  0  0  0  0  0
   13.2773   18.5527   31.9170 N   0  0  0  0  0  0
   13.3738   18.2102   30.6157 C   0  0  0  0  0  0
   14.1491   17.2266   30.1122 N   0  0  0  0  0  0
   12.5897   18.9144   29.7171 N   0  0  0  0  0  0
   13.9178   18.2280   34.1162 N   0  0  0  0  0  0
   15.6895   16.0018   33.3807 C   0  0  0  0  0  0
   17.0657   15.8019   33.2040 C   0  0  0  0  0  0
   17.8030   15.0296   34.1032 C   0  0  0  0  0  0
   17.1684   14.4400   35.1962 C   0  0  0  0  0  0
   15.8044   14.6371   35.3983 C   0  0  0  0  0  0
   15.0791   15.4270   34.5054 C   0  0  0  0  0  0
   15.0010   13.8821   36.7246 Cl  0  0  0  0  0  0
   15.6680   13.8061   28.8483 H   0  0  0  0  0  0
   14.0741   14.2247   29.4650 H   0  0  0  0  0  0
   14.8983   15.2990   28.3343 H   0  0  0  0  0  0
   16.6635   15.7705   30.0661 H   0  0  0  0  0  0
   15.9197   14.6126   31.1351 H   0  0  0  0  0  0
   12.5749   18.6206   28.7530 H   0  0  0  0  0  0
   11.8801   19.5380   30.0788 H   0  0  0  0  0  0
   14.5256   17.8037   34.7984 H   0  0  0  0  0  0
   13.4062   19.0871   34.3266 H   0  0  0  0  0  0
   17.5698   16.2283   32.3511 H   0  0  0  0  0  0
   18.8596   14.8750   33.9409 H   0  0  0  0  0  0
   17.7362   13.8294   35.8817 H   0  0  0  0  0  0
   14.0173   15.5505   34.6649 H   0  0  0  0  0  0
  1  2  1  0  0  0
  1 18  1  0  0  0
  1 19  1  0  0  0
  1 20  1  0  0  0
  2  3  1  0  0  0
  2 21  1  0  0  0
  2 22  1  0  0  0
  3  8  1  0  0  0
  3  4  2  0  0  0
  4  5  1  0  0  0
  4 11  1  0  0  0
  5  6  2  0  0  0
  5 10  1  0  0  0
  6  7  1  0  0  0
  7  8  2  0  0  0
  7  9  1  0  0  0
  9 23  1  0  0  0
  9 24  1  0  0  0
 10 25  1  0  0  0
 10 26  1  0  0  0
 11 16  1  0  0  0
 11 12  2  0  0  0
 12 13  1  0  0  0
 12 27  1  0  0  0
 13 14  2  0  0  0
 13 28  1  0  0  0
 14 15  1  0  0  0
 14 29  1  0  0  0
 15 16  2  0  0  0
 15 17  1  0  0  0
 16 30  1  0  0  0
M  END
> <s_m_entry_id>
41875

> <s_m_entry_name>
ligand_docking-pose.235

> <s_m_Source_Path>
/home/csk/Desktop/cluster/DUD-E-result/tysy

> <s_m_Source_File>
ligand_docking-pose.sdf

> <i_m_Source_File_Index>
235

> <i_lp_mmshare_version>
53161

> <i_f3d_flags>
0

> <r_lp_tautomer_probability>
0.999999624730965

> <s_lp_Force_Field>
OPLS_2005

> <r_lp_Energy>
5.458229

> <b_lp_Chiralities_Consistent>
1

> <s_lp_Variant>
27914-1

> <s_i_glide_gridfile>
glide-grid_1syn

> <i_i_glide_lignum>
727

> <i_i_glide_rotatable_bonds>
2

> <r_i_docking_score>
-7.47433952052427

> <r_i_glide_ligand_efficiency>
-0.439667030619075

> <r_i_glide_ligand_efficiency_sa>
-1.13050774078254

> <r_i_glide_ligand_efficiency_ln>
-1.94988873554716

> <r_i_glide_gscore>
-7.47433952052427

> <r_i_glide_lipo>
-3.39897131132357

> <r_i_glide_hbond>
-0.16

> <r_i_glide_metal>
0

> <r_i_glide_rewards>
-1.90116942445343

> <r_i_glide_evdw>
-36.0324783325195

> <r_i_glide_ecoul>
-3.01213622093201

> <r_i_glide_erotb>
0.282491304660606

> <r_i_glide_esite>
-0.0432457396420963

> <r_i_glide_emodel>
-56.8619611961799

> <r_i_glide_energy>
-39.0446145534515

> <r_i_glide_einternal>
0.557573020458221

> <i_i_glide_confnum>
1

> <i_i_glide_posenum>
170

> <r_i_glide_eff_state_penalty>
0

> <s_user_duplicate_titles>
27914

> <s_m_subgroup_title>
dock_pv

> <s_m_subgroupid>
dock_pv1

> <b_m_subgroup_collapsed>
0

$$$$
230931
                    3D
 Schrodinger Suite 2021-1.
 61 63  0  0  1  0            999 V2000
   12.5229   10.2784   36.5552 C   0  0  0  0  0  0
   13.6726   11.1918   36.4900 N   0  0  1  0  0  0
   13.4532   12.4478   37.2254 C   0  0  0  0  0  0
   13.5428   12.2716   38.7542 C   0  0  0  0  0  0
   13.1414   13.5174   39.5581 C   0  0  0  0  0  0
   13.2268   13.2551   41.0698 C   0  0  0  0  0  0
   12.5672   14.6277   41.9913 Cl  0  0  0  0  0  0
   15.3011   10.6503   36.3392 P   0  0  1  0  0  0
   15.9775   10.2281   37.5910 O   0  0  0  0  0  0
   15.3858    9.4994   35.1733 O   0  0  0  0  0  0
   14.4956    8.4019   34.9376 C   0  0  0  0  0  0
   14.2282    7.4962   36.1337 C   0  0  0  0  0  0
   13.4555    6.3549   36.3216 C   0  0  0  0  0  0
   13.5834    5.9750   37.6570 C   0  0  0  0  0  0
   14.3966    6.9261   38.2517 C   0  0  0  0  0  0
   14.8080    7.8175   37.3150 O   0  0  0  0  0  0
   14.8309    7.1157   39.5923 N   0  3  0  0  0  0
   14.5970    6.2142   40.3908 O   0  5  0  0  0  0
   15.3921    8.1721   39.8672 O   0  0  0  0  0  0
   15.9834   11.9508   35.6213 O   0  0  0  0  0  0
   17.3552   12.0034   35.2576 C   0  0  0  0  0  0
   17.7949   13.4671   34.9808 C   0  0  1  0  0  0
   18.8852   13.6108   33.9081 C   0  0  1  0  0  0
   18.7318   15.0178   33.3602 C   0  0  0  0  0  0
   17.2687   15.3268   33.6769 C   0  0  2  0  0  0
   16.7534   14.2279   34.3771 O   0  0  0  0  0  0
   16.3796   15.7130   32.5836 N   0  0  0  0  0  0
   16.4208   15.0279   31.3894 C   0  0  0  0  0  0
   15.6196   15.3022   30.3400 C   0  0  0  0  0  0
   14.6384   16.3700   30.4654 C   0  0  0  0  0  0
   13.8436   16.7011   29.5888 O   0  0  0  0  0  0
   14.6757   16.9873   31.6821 N   0  0  0  0  0  0
   15.4755   16.7467   32.7694 C   0  0  0  0  0  0
   15.3450   17.4383   33.7794 O   0  0  0  0  0  0
   15.6881   14.5947   29.1909 F   0  0  0  0  0  0
   20.1921   13.4280   34.3910 O   0  0  0  0  0  0
   14.0105   17.7369   31.7994 H   0  0  0  0  0  0
   11.6355   10.7849   36.9365 H   0  0  0  0  0  0
   12.2635    9.9149   35.5649 H   0  0  0  0  0  0
   12.7346    9.4441   37.2219 H   0  0  0  0  0  0
   14.1825   13.1895   36.8946 H   0  0  0  0  0  0
   12.4783   12.8533   36.9494 H   0  0  0  0  0  0
   12.9070   11.4394   39.0603 H   0  0  0  0  0  0
   14.5599   11.9821   39.0194 H   0  0  0  0  0  0
   13.7823   14.3588   39.2883 H   0  0  0  0  0  0
   12.1225   13.8041   39.2927 H   0  0  0  0  0  0
   12.6532   12.3713   41.3501 H   0  0  0  0  0  0
   14.2574   13.1011   41.3912 H   0  0  0  0  0  0
   14.9763    7.8183   34.1579 H   0  0  0  0  0  0
   13.5741    8.7549   34.4813 H   0  0  0  0  0  0
   12.8644    5.8377   35.5793 H   0  0  0  0  0  0
   13.1143    5.1282   38.1376 H   0  0  0  0  0  0
   17.9808   11.5804   36.0447 H   0  0  0  0  0  0
   17.5058   11.3681   34.3910 H   0  0  0  0  0  0
   18.0344   13.9602   35.9237 H   0  0  0  0  0  0
   18.6896   12.9067   33.0956 H   0  0  0  0  0  0
   19.3592   15.7375   33.8902 H   0  0  0  0  0  0
   18.9706   15.0817   32.2985 H   0  0  0  0  0  0
   17.2650   16.1524   34.3909 H   0  0  0  0  0  0
   17.1416   14.2226   31.3660 H   0  0  0  0  0  0
   20.6697   12.8051   33.8043 H   0  0  0  0  0  0
  1  2  1  0  0  0
  1 38  1  0  0  0
  1 39  1  0  0  0
  1 40  1  0  0  0
  2  3  1  0  0  0
  2  8  1  0  0  0
  3  4  1  0  0  0
  3 41  1  0  0  0
  3 42  1  0  0  0
  4  5  1  0  0  0
  4 43  1  0  0  0
  4 44  1  0  0  0
  5  6  1  0  0  0
  5 45  1  0  0  0
  5 46  1  0  0  0
  6  7  1  0  0  0
  6 47  1  0  0  0
  6 48  1  0  0  0
  8  9  2  0  0  0
  8 10  1  0  0  0
  8 20  1  0  0  0
 10 11  1  0  0  0
 11 12  1  0  0  0
 11 49  1  0  0  0
 11 50  1  0  0  0
 12 16  1  0  0  0
 12 13  2  0  0  0
 13 14  1  0  0  0
 13 51  1  0  0  0
 14 15  2  0  0  0
 14 52  1  0  0  0
 15 16  1  0  0  0
 15 17  1  0  0  0
 17 18  1  0  0  0
 17 19  2  0  0  0
 20 21  1  0  0  0
 21 22  1  0  0  0
 21 53  1  0  0  0
 21 54  1  0  0  0
 22 26  1  0  0  0
 22 23  1  0  0  0
 22 55  1  0  0  0
 23 24  1  0  0  0
 23 36  1  0  0  0
 23 56  1  0  0  0
 24 25  1  0  0  0
 24 57  1  0  0  0
 24 58  1  0  0  0
 25 26  1  0  0  0
 25 27  1  0  0  0
 25 59  1  0  0  0
 27 33  1  0  0  0
 27 28  1  0  0  0
 28 29  2  0  0  0
 28 60  1  0  0  0
 29 30  1  0  0  0
 29 35  1  0  0  0
 30 31  2  0  0  0
 30 32  1  0  0  0
 32 37  1  0  0  0
 32 33  1  0  0  0
 33 34  2  0  0  0
 36 61  1  0  0  0
M  CHG  2  17   1  18  -1
M  END
> <s_m_entry_id>
41876

> <s_m_entry_name>
ligand_docking-pose.236

> <s_m_Source_Path>
/home/csk/Desktop/cluster/DUD-E-result/tysy

> <s_m_Source_File>
ligand_docking-pose.sdf

> <i_m_Source_File_Index>
236

> <i_lp_mmshare_version>
53161

> <i_f3d_flags>
0

> <r_lp_tautomer_probability>
0.999537046341301

> <s_lp_Force_Field>
OPLS_2005

> <r_lp_Energy>
0.315929

> <b_lp_Chiralities_Consistent>
1

> <s_lp_Variant>
230931-11

> <s_i_glide_gridfile>
glide-grid_1syn

> <i_i_glide_lignum>
963

> <i_i_glide_rotatable_bonds>
14

> <r_i_docking_score>
-7.47142021483488

> <r_i_glide_ligand_efficiency>
-0.20753945041208

> <r_i_glide_ligand_efficiency_sa>
-0.685280165717691

> <r_i_glide_ligand_efficiency_ln>
-1.63006203642992

> <r_i_glide_gscore>
-7.47142021483488

> <r_i_glide_lipo>
-1.86785731853861

> <r_i_glide_hbond>
-0.338104751058826

> <r_i_glide_metal>
0

> <r_i_glide_rewards>
-1.79183970073301

> <r_i_glide_evdw>
-51.0187530517578

> <r_i_glide_ecoul>
-10.6029481887817

> <r_i_glide_erotb>
0.66776143640071

> <r_i_glide_esite>
0

> <r_i_glide_emodel>
-83.5833249270682

> <r_i_glide_energy>
-61.6217012405396

> <r_i_glide_einternal>
13.4631767272949

> <i_i_glide_confnum>
362

> <i_i_glide_posenum>
257

> <r_i_glide_eff_state_penalty>
0

> <s_user_duplicate_titles>
230931

> <s_m_subgroup_title>
dock_pv

> <s_m_subgroupid>
dock_pv1

> <b_m_subgroup_collapsed>
0

$$$$
61683
                    3D
 Schrodinger Suite 2021-1.
 57 59  0  0  1  0            999 V2000
   18.6832   10.0994   34.9246 C   0  0  0  0  0  0
   18.8512   11.5594   34.4774 C   0  0  0  0  0  0
   17.7926   12.5393   34.7908 N   0  0  0  0  0  0
   18.2481   13.8800   34.3703 C   0  0  0  0  0  0
   17.3571   14.5388   33.3232 C   0  0  0  0  0  0
   17.4401   14.1718   31.9716 C   0  0  0  0  0  0
   16.6420   14.8126   31.0165 C   0  0  0  0  0  0
   15.7707   15.8301   31.4064 C   0  0  0  0  0  0
   15.6994   16.2011   32.7528 C   0  0  0  0  0  0
   16.4847   15.5589   33.7105 C   0  0  0  0  0  0
   14.7592   17.3191   33.1346 C   0  0  0  0  0  0
   14.0892   17.8212   32.0687 N   0  0  0  0  0  0
   14.1927   17.4260   30.7590 C   0  0  0  0  0  0
   14.9878   16.4681   30.4269 N   0  0  0  0  0  0
   13.3414   18.1664   29.7317 C   0  0  0  0  0  0
   13.7484   17.9327   28.4798 F   0  0  0  0  0  0
   14.5909   17.7685   34.2634 O   0  0  0  0  0  0
   16.6015   12.3102   35.4850 C   0  0  0  0  0  0
   15.8450   11.1390   35.5974 C   0  0  0  0  0  0
   14.7246   11.2525   36.4292 C   0  0  0  0  0  0
   14.5829   12.5209   36.9877 C   0  0  0  0  0  0
   15.8179   13.5839   36.3900 S   0  0  0  0  0  0
   13.5759   13.0252   37.8872 C   0  0  0  0  0  0
   13.4486   14.2278   38.1217 O   0  0  0  0  0  0
   12.8330   12.0849   38.4948 N   0  0  0  0  0  0
   11.7622   12.3671   39.4600 C   0  0  2  0  0  0
   12.2871   12.2656   40.9192 C   0  0  0  0  0  0
   13.4122   13.2599   41.2802 C   0  0  0  0  0  0
   13.7272   13.2808   42.7754 C   0  0  0  0  0  0
   13.3914   14.1937   43.5255 O   0  0  0  0  0  0
   14.3853   12.1625   43.1910 O   0  0  0  0  0  0
   10.5462   11.4610   39.1818 C   0  0  0  0  0  0
   10.0815   10.6844   39.9908 O   0  0  0  0  0  0
   10.0734   11.6876   37.9201 O   0  0  0  0  0  0
   11.3960   13.3875   39.3161 H   0  0  0  0  0  0
   19.6203    9.5627   34.7714 H   0  0  0  0  0  0
   18.4384   10.0190   35.9836 H   0  0  0  0  0  0
   17.9427    9.5724   34.3261 H   0  0  0  0  0  0
   18.9920   11.5544   33.3948 H   0  0  0  0  0  0
   19.7885   11.9148   34.9111 H   0  0  0  0  0  0
   18.3242   14.5196   35.2504 H   0  0  0  0  0  0
   19.2613   13.8616   33.9596 H   0  0  0  0  0  0
   18.1251   13.3928   31.6617 H   0  0  0  0  0  0
   16.7041   14.5261   29.9767 H   0  0  0  0  0  0
   16.4187   15.8316   34.7530 H   0  0  0  0  0  0
   12.2968   17.8609   29.7944 H   0  0  0  0  0  0
   13.3908   19.2455   29.8824 H   0  0  0  0  0  0
   13.4723   18.5806   32.3089 H   0  0  0  0  0  0
   16.0718   10.2158   35.0938 H   0  0  0  0  0  0
   14.0497   10.4290   36.6120 H   0  0  0  0  0  0
   12.9889   11.1136   38.2721 H   0  0  0  0  0  0
   12.6381   11.2505   41.1149 H   0  0  0  0  0  0
   11.4483   12.4406   41.5910 H   0  0  0  0  0  0
   13.1207   14.2671   40.9795 H   0  0  0  0  0  0
   14.3214   13.0281   40.7286 H   0  0  0  0  0  0
   14.5919   12.1708   44.1382 H   0  0  0  0  0  0
   10.5922   12.3402   37.4444 H   0  0  0  0  0  0
  1  2  1  0  0  0
  1 36  1  0  0  0
  1 37  1  0  0  0
  1 38  1  0  0  0
  2  3  1  0  0  0
  2 39  1  0  0  0
  2 40  1  0  0  0
  3  4  1  0  0  0
  3 18  1  0  0  0
  4 41  1  0  0  0
  4 42  1  0  0  0
  4  5  1  0  0  0
  5 10  2  0  0  0
  5  6  1  0  0  0
  6 43  1  0  0  0
  6  7  2  0  0  0
  7 44  1  0  0  0
  7  8  1  0  0  0
  8  9  2  0  0  0
  8 14  1  0  0  0
  9 11  1  0  0  0
  9 10  1  0  0  0
 10 45  1  0  0  0
 11 17  2  0  0  0
 11 12  1  0  0  0
 12 13  1  0  0  0
 12 48  1  0  0  0
 13 14  2  0  0  0
 13 15  1  0  0  0
 15 16  1  0  0  0
 15 46  1  0  0  0
 15 47  1  0  0  0
 18 22  1  0  0  0
 18 19  2  0  0  0
 19 20  1  0  0  0
 19 49  1  0  0  0
 20 21  2  0  0  0
 20 50  1  0  0  0
 21 22  1  0  0  0
 21 23  1  0  0  0
 23 24  2  0  0  0
 23 25  1  0  0  0
 25 26  1  0  0  0
 25 51  1  0  0  0
 26 35  1  0  0  0
 26 27  1  0  0  0
 26 32  1  0  0  0
 27 28  1  0  0  0
 27 52  1  0  0  0
 27 53  1  0  0  0
 28 29  1  0  0  0
 28 54  1  0  0  0
 28 55  1  0  0  0
 29 30  2  0  0  0
 29 31  1  0  0  0
 31 56  1  0  0  0
 32 33  2  0  0  0
 32 34  1  0  0  0
 34 57  1  0  0  0
M  END
> <s_m_entry_id>
41878

> <s_m_entry_name>
ligand_docking-pose.238

> <s_m_Source_Path>
/home/csk/Desktop/cluster/DUD-E-result/tysy

> <s_m_Source_File>
ligand_docking-pose.sdf

> <i_m_Source_File_Index>
238

> <i_lp_mmshare_version>
53161

> <i_f3d_flags>
0

> <r_lp_tautomer_probability>
0.883938

> <s_lp_Force_Field>
OPLS_2005

> <r_lp_Energy>
20.579771

> <b_lp_Chiralities_Consistent>
1

> <s_lp_Variant>
61683-1

> <s_i_glide_gridfile>
glide-grid_1syn

> <i_i_glide_lignum>
835

> <i_i_glide_rotatable_bonds>
14

> <r_i_docking_score>
-7.46573897899938

> <r_i_glide_ligand_efficiency>
-0.219580558205864

> <r_i_glide_ligand_efficiency_sa>
-0.711355766858649

> <r_i_glide_ligand_efficiency_ln>
-1.64939114734624

> <r_i_glide_gscore>
-7.46573897899938

> <r_i_glide_lipo>
-2.82001260884053

> <r_i_glide_hbond>
0

> <r_i_glide_metal>
0

> <r_i_glide_rewards>
-1.28468227304673

> <r_i_glide_evdw>
-57.6404075622559

> <r_i_glide_ecoul>
-8.73533725738525

> <r_i_glide_erotb>
0.845859159594189

> <r_i_glide_esite>
-0.0145822899857232

> <r_i_glide_emodel>
-95.1415641420977

> <r_i_glide_energy>
-66.3757448196411

> <r_i_glide_einternal>
7.20312738418579

> <i_i_glide_confnum>
68

> <i_i_glide_posenum>
336

> <r_i_glide_eff_state_penalty>
0

> <s_user_duplicate_titles>
61683

> <s_m_subgroup_title>
dock_pv

> <s_m_subgroupid>
dock_pv1

> <b_m_subgroup_collapsed>
0

$$$$
61153
                    3D
 Schrodinger Suite 2021-1.
 56 58  0  0  1  0            999 V2000
   20.2401   14.2851   33.8578 C   0  0  0  0  0  0
   19.1405   13.2400   34.1275 C   0  0  0  0  0  0
   17.9157   13.7246   34.7900 N   0  0  0  0  0  0
   17.5713   15.1477   34.6414 C   0  0  0  0  0  0
   16.7232   15.4964   33.4145 C   0  0  0  0  0  0
   17.0199   15.0164   32.1288 C   0  0  0  0  0  0
   16.2581   15.4157   31.0248 C   0  0  0  0  0  0
   15.2136   16.3225   31.1919 C   0  0  0  0  0  0
   14.9204   16.8006   32.4726 C   0  0  0  0  0  0
   15.6506   16.3789   33.5831 C   0  0  0  0  0  0
   13.7863   17.7805   32.6199 C   0  0  0  0  0  0
   13.2342   18.1184   31.4311 N   0  0  0  0  0  0
   13.5598   17.6259   30.1972 C   0  0  0  0  0  0
   14.4945   16.7504   30.0586 N   0  0  0  0  0  0
   12.7623   18.1280   29.0069 C   0  0  0  0  0  0
   12.9910   19.4256   28.7984 F   0  0  0  0  0  0
   13.3562   18.2276   33.6750 O   0  0  0  0  0  0
   17.0299   12.8273   35.3649 C   0  0  0  0  0  0
   17.1802   11.4594   35.5904 C   0  0  0  0  0  0
   16.1852   10.8439   36.1956 N   0  0  0  0  0  0
   15.1947   11.6514   36.4983 C   0  0  0  0  0  0
   15.4629   13.2916   35.9910 S   0  0  0  0  0  0
   13.9590   11.3685   37.1714 C   0  0  0  0  0  0
   12.9054   11.9513   36.9104 O   0  0  0  0  0  0
   14.0911   10.4557   38.1448 N   0  0  0  0  0  0
   13.0522    9.9963   39.0714 C   0  0  2  0  0  0
   12.4902   11.1678   39.9385 C   0  0  0  0  0  0
   13.5572   12.0310   40.6550 C   0  0  0  0  0  0
   12.9821   13.1455   41.5281 C   0  0  0  0  0  0
   11.7883   13.4281   41.5918 O   0  0  0  0  0  0
   13.9456   13.7842   42.2512 O   0  0  0  0  0  0
   13.6127    8.8364   39.9218 C   0  0  0  0  0  0
   14.7932    8.5488   39.9941 O   0  0  0  0  0  0
   12.5930    8.2003   40.5671 O   0  0  0  0  0  0
   12.2466    9.5894   38.4573 H   0  0  0  0  0  0
   21.1362   13.8280   33.4397 H   0  0  0  0  0  0
   19.9135   15.0286   33.1318 H   0  0  0  0  0  0
   20.5409   14.7912   34.7774 H   0  0  0  0  0  0
   19.5868   12.4594   34.7449 H   0  0  0  0  0  0
   18.8659   12.7515   33.1901 H   0  0  0  0  0  0
   17.0306   15.4279   35.5437 H   0  0  0  0  0  0
   18.4476   15.7941   34.6618 H   0  0  0  0  0  0
   17.8473   14.3411   31.9711 H   0  0  0  0  0  0
   16.4897   15.0414   30.0382 H   0  0  0  0  0  0
   15.3954   16.7514   34.5677 H   0  0  0  0  0  0
   13.0146   17.5998   28.0876 H   0  0  0  0  0  0
   11.6920   18.0179   29.1909 H   0  0  0  0  0  0
   12.5003   18.8050   31.5043 H   0  0  0  0  0  0
   18.0478   10.8784   35.3132 H   0  0  0  0  0  0
   14.9904   10.0219   38.2801 H   0  0  0  0  0  0
   11.7813   10.7841   40.6735 H   0  0  0  0  0  0
   11.8862   11.8178   39.3039 H   0  0  0  0  0  0
   14.1918   12.5081   39.9109 H   0  0  0  0  0  0
   14.1873   11.3932   41.2763 H   0  0  0  0  0  0
   14.8240   13.4281   42.0971 H   0  0  0  0  0  0
   11.7290    8.5382   40.3259 H   0  0  0  0  0  0
  1  2  1  0  0  0
  1 36  1  0  0  0
  1 37  1  0  0  0
  1 38  1  0  0  0
  2  3  1  0  0  0
  2 39  1  0  0  0
  2 40  1  0  0  0
  3  4  1  0  0  0
  3 18  1  0  0  0
  4 41  1  0  0  0
  4 42  1  0  0  0
  4  5  1  0  0  0
  5 10  2  0  0  0
  5  6  1  0  0  0
  6 43  1  0  0  0
  6  7  2  0  0  0
  7 44  1  0  0  0
  7  8  1  0  0  0
  8  9  2  0  0  0
  8 14  1  0  0  0
  9 11  1  0  0  0
  9 10  1  0  0  0
 10 45  1  0  0  0
 11 17  2  0  0  0
 11 12  1  0  0  0
 12 13  1  0  0  0
 12 48  1  0  0  0
 13 14  2  0  0  0
 13 15  1  0  0  0
 15 16  1  0  0  0
 15 46  1  0  0  0
 15 47  1  0  0  0
 18 22  1  0  0  0
 18 19  2  0  0  0
 19 20  1  0  0  0
 19 49  1  0  0  0
 20 21  2  0  0  0
 21 22  1  0  0  0
 21 23  1  0  0  0
 23 24  2  0  0  0
 23 25  1  0  0  0
 25 26  1  0  0  0
 25 50  1  0  0  0
 26 35  1  0  0  0
 26 27  1  0  0  0
 26 32  1  0  0  0
 27 28  1  0  0  0
 27 51  1  0  0  0
 27 52  1  0  0  0
 28 29  1  0  0  0
 28 53  1  0  0  0
 28 54  1  0  0  0
 29 30  2  0  0  0
 29 31  1  0  0  0
 31 55  1  0  0  0
 32 33  2  0  0  0
 32 34  1  0  0  0
 34 56  1  0  0  0
M  END
> <s_m_entry_id>
41881

> <s_m_entry_name>
ligand_docking-pose.241

> <s_m_Source_Path>
/home/csk/Desktop/cluster/DUD-E-result/tysy

> <s_m_Source_File>
ligand_docking-pose.sdf

> <i_m_Source_File_Index>
241

> <i_lp_mmshare_version>
53161

> <i_f3d_flags>
0

> <r_lp_tautomer_probability>
0.883938

> <s_lp_Force_Field>
OPLS_2005

> <r_lp_Energy>
19.151528

> <b_lp_Chiralities_Consistent>
1

> <s_lp_Variant>
61153-1

> <s_i_glide_gridfile>
glide-grid_1syn

> <i_i_glide_lignum>
837

> <i_i_glide_rotatable_bonds>
14

> <r_i_docking_score>
-7.45172343481274

> <r_i_glide_ligand_efficiency>
-0.219168336318022

> <r_i_glide_ligand_efficiency_sa>
-0.71002032796762

> <r_i_glide_ligand_efficiency_ln>
-1.64629472051271

> <r_i_glide_gscore>
-7.45172343481274

> <r_i_glide_lipo>
-3.32274659213272

> <r_i_glide_hbond>
-0.142840795147671

> <r_i_glide_metal>
0

> <r_i_glide_rewards>
-1.22448332044896

> <r_i_glide_evdw>
-59.479793548584

> <r_i_glide_ecoul>
-3.94384980201721

> <r_i_glide_erotb>
0.842748587256568

> <r_i_glide_esite>
-0.0388341666081769

> <r_i_glide_emodel>
-91.3554885076203

> <r_i_glide_energy>
-63.4236433506012

> <r_i_glide_einternal>
8.11628341674805

> <i_i_glide_confnum>
29

> <i_i_glide_posenum>
215

> <r_i_glide_eff_state_penalty>
0

> <s_user_duplicate_titles>
61153

> <s_m_subgroup_title>
dock_pv

> <s_m_subgroupid>
dock_pv1

> <b_m_subgroup_collapsed>
0

$$$$
151982
                    3D
 Schrodinger Suite 2021-1.
 59 61  0  0  1  0            999 V2000
   12.7334   18.2357   29.1040 C   0  0  0  0  0  0
   13.4489   17.7240   30.3355 C   0  0  0  0  0  0
   13.1031   18.1897   31.6007 C   0  0  0  0  0  0
   13.8092   17.7216   32.7051 C   0  0  0  0  0  0
   14.8875   16.8219   32.5096 C   0  0  0  0  0  0
   15.7198   16.3854   33.5662 C   0  0  0  0  0  0
   16.7835   15.5247   33.3249 C   0  0  0  0  0  0
   16.9962   15.0278   32.0347 C   0  0  0  0  0  0
   16.1918   15.4289   30.9698 C   0  0  0  0  0  0
   15.1472   16.3616   31.1829 C   0  0  0  0  0  0
   14.4306   16.8119   30.1143 N   0  0  0  0  0  0
   17.7317   15.2235   34.4807 C   0  0  0  0  0  0
   18.1975   13.8338   34.5066 N   0  0  0  0  0  0
   19.6508   13.6483   34.3929 C   0  0  0  0  0  0
   20.2434   14.2280   33.1922 C   0  0  0  0  0  0
   20.8609   14.6280   32.2217 C   0  0  0  0  0  0
   17.3918   12.8559   35.1573 C   0  0  0  0  0  0
   16.0879   13.1595   35.5914 C   0  0  0  0  0  0
   15.2885   12.2105   36.2140 C   0  0  0  0  0  0
   15.7722   10.9158   36.4124 C   0  0  0  0  0  0
   17.0613   10.6002   35.9911 C   0  0  0  0  0  0
   17.8539   11.5476   35.3628 C   0  0  0  0  0  0
   14.9130    9.8395   37.0086 C   0  0  0  0  0  0
   15.3918    8.9686   37.7381 O   0  0  0  0  0  0
   13.6344    9.8680   36.6012 N   0  0  0  0  0  0
   12.6281    8.8207   36.7950 C   0  0  1  0  0  0
   11.2598    9.3501   36.2836 C   0  0  0  0  0  0
   11.2444    9.8343   34.8110 C   0  0  0  0  0  0
    9.8880   10.3986   34.4008 C   0  0  0  0  0  0
    9.6259   11.5977   34.3931 O   0  0  0  0  0  0
    8.9982    9.4282   34.0541 O   0  0  0  0  0  0
   13.0374    7.4998   36.0998 C   0  0  0  0  0  0
   13.8391    7.4280   35.1910 O   0  0  0  0  0  0
   12.3675    6.4485   36.6491 O   0  0  0  0  0  0
   13.3594   18.2280   34.2916 Cl  0  0  0  0  0  0
   12.5610    8.6262   37.8673 H   0  0  0  0  0  0
   13.3209   19.0195   28.6250 H   0  0  0  0  0  0
   12.5921   17.4279   28.3904 H   0  0  0  0  0  0
   11.7505   18.6435   29.3470 H   0  0  0  0  0  0
   12.2998   18.9016   31.7276 H   0  0  0  0  0  0
   15.5481   16.7586   34.5648 H   0  0  0  0  0  0
   17.8119   14.3458   31.8431 H   0  0  0  0  0  0
   16.3846   15.0606   29.9720 H   0  0  0  0  0  0
   18.5638   15.9270   34.4168 H   0  0  0  0  0  0
   17.2676   15.4280   35.4436 H   0  0  0  0  0  0
   20.1660   14.1611   35.1910 H   0  0  0  0  0  0
   19.9904   12.6211   34.3909 H   0  0  0  0  0  0
   21.3914   14.8796   31.3376 H   0  0  0  0  0  0
   15.6463   14.1309   35.4417 H   0  0  0  0  0  0
   14.2929   12.4940   36.5244 H   0  0  0  0  0  0
   17.4511    9.6044   36.1113 H   0  0  0  0  0  0
   18.8196   11.2068   35.0327 H   0  0  0  0  0  0
   13.3607   10.6156   35.9846 H   0  0  0  0  0  0
   10.4983    8.5789   36.4172 H   0  0  0  0  0  0
   10.9397   10.1713   36.9275 H   0  0  0  0  0  0
   11.9768   10.6260   34.6575 H   0  0  0  0  0  0
   11.5213    9.0306   34.1291 H   0  0  0  0  0  0
    8.1640    9.8077   33.7691 H   0  0  0  0  0  0
   12.6084    5.6310   36.2046 H   0  0  0  0  0  0
  1  2  1  0  0  0
  1 37  1  0  0  0
  1 38  1  0  0  0
  1 39  1  0  0  0
  2 11  1  0  0  0
  2  3  2  0  0  0
  3  4  1  0  0  0
  3 40  1  0  0  0
  4  5  2  0  0  0
  4 35  1  0  0  0
  5 10  1  0  0  0
  5  6  1  0  0  0
  6  7  2  0  0  0
  6 41  1  0  0  0
  7  8  1  0  0  0
  7 12  1  0  0  0
  8  9  2  0  0  0
  8 42  1  0  0  0
  9 10  1  0  0  0
  9 43  1  0  0  0
 10 11  2  0  0  0
 12 13  1  0  0  0
 12 44  1  0  0  0
 12 45  1  0  0  0
 13 14  1  0  0  0
 13 17  1  0  0  0
 14 15  1  0  0  0
 14 46  1  0  0  0
 14 47  1  0  0  0
 15 16  3  0  0  0
 16 48  1  0  0  0
 17 22  1  0  0  0
 17 18  2  0  0  0
 18 19  1  0  0  0
 18 49  1  0  0  0
 19 20  2  0  0  0
 19 50  1  0  0  0
 20 21  1  0  0  0
 20 23  1  0  0  0
 21 22  2  0  0  0
 21 51  1  0  0  0
 22 52  1  0  0  0
 23 24  2  0  0  0
 23 25  1  0  0  0
 25 26  1  0  0  0
 25 53  1  0  0  0
 26 36  1  0  0  0
 26 27  1  0  0  0
 26 32  1  0  0  0
 27 28  1  0  0  0
 27 54  1  0  0  0
 27 55  1  0  0  0
 28 29  1  0  0  0
 28 56  1  0  0  0
 28 57  1  0  0  0
 29 30  2  0  0  0
 29 31  1  0  0  0
 31 58  1  0  0  0
 32 33  2  0  0  0
 32 34  1  0  0  0
 34 59  1  0  0  0
M  END
> <s_m_entry_id>
41883

> <s_m_entry_name>
ligand_docking-pose.243

> <s_m_Source_Path>
/home/csk/Desktop/cluster/DUD-E-result/tysy

> <s_m_Source_File>
ligand_docking-pose.sdf

> <i_m_Source_File_Index>
243

> <i_lp_mmshare_version>
53161

> <i_f3d_flags>
0

> <r_lp_tautomer_probability>
1

> <s_lp_Force_Field>
OPLS_2005

> <r_lp_Energy>
15.356221

> <b_lp_Chiralities_Consistent>
1

> <s_lp_Variant>
151982-1

> <s_i_glide_gridfile>
glide-grid_1syn

> <i_i_glide_lignum>
421

> <i_i_glide_rotatable_bonds>
14

> <r_i_docking_score>
-7.4431316378698

> <r_i_glide_ligand_efficiency>
-0.212660903939137

> <r_i_glide_ligand_efficiency_sa>
-0.695627917545164

> <r_i_glide_ligand_efficiency_ln>
-1.63393258591885

> <r_i_glide_gscore>
-7.4431316378698

> <r_i_glide_lipo>
-3.98692720036704

> <r_i_glide_hbond>
-0.521023094577716

> <r_i_glide_metal>
0

> <r_i_glide_rewards>
-0.509645943522558

> <r_i_glide_evdw>
-42.6847305297852

> <r_i_glide_ecoul>
-8.52947521209717

> <r_i_glide_erotb>
1.00215033833638

> <r_i_glide_esite>
-0.0140279294350312

> <r_i_glide_emodel>
-63.0427048343452

> <r_i_glide_energy>
-51.2142057418823

> <r_i_glide_einternal>
19.5043907165527

> <i_i_glide_confnum>
60

> <i_i_glide_posenum>
42

> <r_i_glide_eff_state_penalty>
0

> <s_user_duplicate_titles>
151982

> <s_m_subgroup_title>
dock_pv

> <s_m_subgroupid>
dock_pv1

> <b_m_subgroup_collapsed>
0

$$$$
55593
                    3D
 Schrodinger Suite 2021-1.
 56 58  0  0  1  0            999 V2000
   17.3742   10.6425   35.5921 C   0  0  0  0  0  0
   18.1320   11.6257   34.9565 C   0  0  0  0  0  0
   17.7101   12.9537   34.9748 C   0  0  0  0  0  0
   16.5673   13.3008   35.7104 C   0  0  0  0  0  0
   15.7942   12.3202   36.3199 C   0  0  0  0  0  0
   16.1793   10.9803   36.2398 C   0  0  0  0  0  0
   15.3120    9.9035   36.8277 C   0  0  0  0  0  0
   15.7920    9.0281   37.5430 O   0  0  0  0  0  0
   14.0078    9.9503   36.4939 N   0  0  0  0  0  0
   12.9924    8.9374   36.8412 C   0  0  2  0  0  0
   12.8249    8.7975   38.3891 C   0  0  0  0  0  0
   12.5010   10.1184   39.1261 C   0  0  0  0  0  0
   12.5526    9.9863   40.6493 C   0  0  0  0  0  0
   13.1719   10.7548   41.3822 O   0  0  0  0  0  0
   11.7914    8.9546   41.1146 O   0  0  0  0  0  0
   13.2465    7.5881   36.1097 C   0  0  0  0  0  0
   14.0249    7.4398   35.1914 O   0  0  0  0  0  0
   12.4425    6.6044   36.6025 O   0  0  0  0  0  0
   18.4037   13.8734   34.1578 N   0  0  0  0  0  0
   17.9547   15.2606   33.9599 C   0  0  0  0  0  0
   16.7716   15.4271   32.9609 C   0  0  2  0  0  0
   17.0820   15.2163   31.4497 C   0  0  0  0  0  0
   15.8715   15.5128   30.4851 C   0  0  0  0  0  0
   14.9753   16.6755   30.9444 C   0  0  0  0  0  0
   15.1091   17.1110   32.2947 C   0  0  0  0  0  0
   14.2289   18.1311   32.7114 C   0  0  0  0  0  0
   13.3408   18.6468   31.8396 N   0  3  0  0  0  0
   13.2868   18.2185   30.5676 C   0  0  0  0  0  0
   14.0974   17.2508   30.0743 N   0  0  0  0  0  0
   12.3419   18.7391   29.6658 N   0  0  0  0  0  0
   14.1918   18.6280   33.9924 O   0  0  0  0  0  0
   16.0249   16.6280   33.2249 N   0  5  0  0  0  0
   17.6980    9.6160   35.5221 H   0  0  0  0  0  0
   19.0179   11.3422   34.4048 H   0  0  0  0  0  0
   16.2236   14.3211   35.7727 H   0  0  0  0  0  0
   14.8947   12.6132   36.8424 H   0  0  0  0  0  0
   13.7081   10.6792   35.8664 H   0  0  0  0  0  0
   12.0505    9.3077   36.4354 H   0  0  0  0  0  0
   12.0144    8.0953   38.5887 H   0  0  0  0  0  0
   13.7155    8.3449   38.8294 H   0  0  0  0  0  0
   13.2166   10.8934   38.8493 H   0  0  0  0  0  0
   11.5182   10.4869   38.8297 H   0  0  0  0  0  0
   11.3795    8.4509   40.4088 H   0  0  0  0  0  0
   12.5894    5.7832   36.1240 H   0  0  0  0  0  0
   19.0206   13.4786   33.4569 H   0  0  0  0  0  0
   17.6685   15.6506   34.9342 H   0  0  0  0  0  0
   18.8070   15.8714   33.6622 H   0  0  0  0  0  0
   16.0790   14.6280   33.2103 H   0  0  0  0  0  0
   17.9365   15.8280   31.1839 H   0  0  0  0  0  0
   17.4263   14.1939   31.2884 H   0  0  0  0  0  0
   16.2296   15.6845   29.4689 H   0  0  0  0  0  0
   15.2385   14.6285   30.4221 H   0  0  0  0  0  0
   12.3304   18.4044   28.7139 H   0  0  0  0  0  0
   11.6286   19.3953   29.9639 H   0  0  0  0  0  0
   13.5754   19.3525   34.1631 H   0  0  0  0  0  0
   12.7105   19.3727   32.1394 H   0  0  0  0  0  0
  1  6  1  0  0  0
  1  2  2  0  0  0
  1 33  1  0  0  0
  2  3  1  0  0  0
  2 34  1  0  0  0
  3  4  2  0  0  0
  3 19  1  0  0  0
  4  5  1  0  0  0
  4 35  1  0  0  0
  5  6  2  0  0  0
  5 36  1  0  0  0
  6  7  1  0  0  0
  7  8  2  0  0  0
  7  9  1  0  0  0
  9 10  1  0  0  0
  9 37  1  0  0  0
 10 11  1  0  0  0
 10 16  1  0  0  0
 10 38  1  0  0  0
 11 12  1  0  0  0
 11 39  1  0  0  0
 11 40  1  0  0  0
 12 13  1  0  0  0
 12 41  1  0  0  0
 12 42  1  0  0  0
 13 14  2  0  0  0
 13 15  1  0  0  0
 15 43  1  0  0  0
 16 17  2  0  0  0
 16 18  1  0  0  0
 18 44  1  0  0  0
 19 20  1  0  0  0
 19 45  1  0  0  0
 20 21  1  0  0  0
 20 46  1  0  0  0
 20 47  1  0  0  0
 21 22  1  0  0  0
 21 48  1  0  0  0
 21 32  1  0  0  0
 22 23  1  0  0  0
 22 49  1  0  0  0
 22 50  1  0  0  0
 23 51  1  0  0  0
 23 52  1  0  0  0
 23 24  1  0  0  0
 24 25  2  0  0  0
 24 29  1  0  0  0
 25 32  1  0  0  0
 25 26  1  0  0  0
 26 31  1  0  0  0
 26 27  2  0  0  0
 27 56  1  0  0  0
 27 28  1  0  0  0
 28 30  1  0  0  0
 28 29  2  0  0  0
 30 53  1  0  0  0
 30 54  1  0  0  0
 31 55  1  0  0  0
M  CHG  2  27   1  32  -1
M  END
> <s_m_entry_id>
41885

> <s_m_entry_name>
ligand_docking-pose.245

> <s_m_Source_Path>
/home/csk/Desktop/cluster/DUD-E-result/tysy

> <s_m_Source_File>
ligand_docking-pose.sdf

> <i_m_Source_File_Index>
245

> <i_lp_mmshare_version>
53161

> <i_f3d_flags>
0

> <r_lp_tautomer_probability>
0.945053809170838

> <s_lp_Force_Field>
OPLS_2005

> <r_lp_Energy>
9.023492

> <b_lp_Chiralities_Consistent>
1

> <s_lp_Variant>
55593-1

> <s_i_glide_gridfile>
glide-grid_1syn

> <i_i_glide_lignum>
50

> <i_i_glide_rotatable_bonds>
13

> <r_i_docking_score>
-7.41324936790024

> <r_i_glide_ligand_efficiency>
-0.231664042746882

> <r_i_glide_ligand_efficiency_sa>
-0.735487489469546

> <r_i_glide_ligand_efficiency_ln>
-1.66002861101854

> <r_i_glide_gscore>
-7.41324936790024

> <r_i_glide_lipo>
-3.09907968602426

> <r_i_glide_hbond>
-0.713352900143001

> <r_i_glide_metal>
0

> <r_i_glide_rewards>
-0.751268669297761

> <r_i_glide_evdw>
-45.0166244506836

> <r_i_glide_ecoul>
-10.4976453781128

> <r_i_glide_erotb>
1.01251359057351

> <r_i_glide_esite>
-0.0365836737576231

> <r_i_glide_emodel>
-82.7172249140139

> <r_i_glide_energy>
-55.5142698287964

> <r_i_glide_einternal>
11.5793018341064

> <i_i_glide_confnum>
15

> <i_i_glide_posenum>
142

> <r_i_glide_eff_state_penalty>
0

> <s_user_duplicate_titles>
55593

> <s_m_subgroup_title>
dock_pv

> <s_m_subgroupid>
dock_pv1

> <b_m_subgroup_collapsed>
0

$$$$
268614
                    3D
 Schrodinger Suite 2021-1.
 60 63  0  0  1  0            999 V2000
   10.4109   12.9736   36.7913 C   0  0  0  0  0  0
   11.4165   13.2556   37.4239 C   0  0  0  0  0  0
   12.6246   13.5381   38.2177 C   0  0  0  0  0  0
   13.7842   12.7308   37.8103 N   0  0  0  0  0  0
   14.0207   11.4908   38.5658 C   0  0  0  0  0  0
   13.5522   10.1959   37.9099 C   0  0  0  0  0  0
   13.1012   10.1281   36.5827 C   0  0  0  0  0  0
   12.6553    8.9176   36.0523 C   0  0  0  0  0  0
   12.6460    7.7821   36.8542 C   0  0  0  0  0  0
   13.1182    7.8238   38.1688 C   0  0  0  0  0  0
   13.5794    9.0358   38.6937 C   0  0  0  0  0  0
   13.0966    6.5558   39.0152 C   0  0  0  0  0  0
   12.4630    5.4502   38.4263 N   0  0  0  0  0  0
   12.0201    5.4821   37.2274 C   0  0  0  0  0  0
   12.1261    6.5762   36.3910 N   0  0  0  0  0  0
   11.3073    4.2604   36.6826 C   0  0  0  0  0  0
    9.9205    4.5792   36.3166 C   0  0  0  0  0  0
    8.8310    4.8339   36.0239 N   0  0  0  0  0  0
   13.6139    6.5686   40.1315 O   0  0  0  0  0  0
   14.7164   13.1959   36.8359 C   0  0  0  0  0  0
   14.5364   14.4358   36.2115 C   0  0  0  0  0  0
   15.4749   14.9485   35.3266 C   0  0  0  0  0  0
   16.5927   14.1914   34.9811 C   0  0  0  0  0  0
   16.7739   12.9285   35.5512 C   0  0  0  0  0  0
   15.8443   12.4417   36.4712 C   0  0  0  0  0  0
   17.5105   14.7106   33.9160 C   0  0  0  0  0  0
   18.0209   15.8278   33.9948 O   0  0  0  0  0  0
   17.5522   13.9528   32.8104 N   0  0  0  0  0  0
   17.7979   14.4761   31.4675 C   0  0  0  0  0  0
   16.5477   15.0995   30.8331 C   0  0  0  0  0  0
   16.0860   14.6349   29.6041 C   0  0  0  0  0  0
   14.9751   15.2122   28.9985 C   0  0  0  0  0  0
   14.2902   16.2493   29.6285 C   0  0  0  0  0  0
   14.7147   16.7258   30.8751 C   0  0  0  0  0  0
   15.8498   16.1436   31.4586 C   0  0  0  0  0  0
   13.9940   17.8276   31.5585 N   0  3  0  0  0  0
   12.9941   18.2925   31.0215 O   0  5  0  0  0  0
   14.4197   18.2260   32.6382 O   0  0  0  0  0  0
    9.5380   12.7151   36.2324 H   0  0  0  0  0  0
   12.3573   13.3130   39.2507 H   0  0  0  0  0  0
   12.8317   14.6132   38.2358 H   0  0  0  0  0  0
   13.5320   11.5579   39.5382 H   0  0  0  0  0  0
   15.0737   11.3791   38.7906 H   0  0  0  0  0  0
   13.0760   11.0129   35.9647 H   0  0  0  0  0  0
   12.2808    8.8764   35.0376 H   0  0  0  0  0  0
   13.9341    9.0876   39.7136 H   0  0  0  0  0  0
   11.2960    3.4445   37.4052 H   0  0  0  0  0  0
   11.7906    3.8974   35.7821 H   0  0  0  0  0  0
   11.7907    6.5477   35.4339 H   0  0  0  0  0  0
   13.6591   15.0279   36.3908 H   0  0  0  0  0  0
   15.2996   15.9171   34.8745 H   0  0  0  0  0  0
   17.6271   12.3180   35.2862 H   0  0  0  0  0  0
   16.0270   11.4679   36.8933 H   0  0  0  0  0  0
   17.1909   13.0148   32.8657 H   0  0  0  0  0  0
   18.5872   15.2341   31.4920 H   0  0  0  0  0  0
   18.1765   13.6575   30.8521 H   0  0  0  0  0  0
   16.5921   13.8246   29.1063 H   0  0  0  0  0  0
   14.6394   14.8509   28.0373 H   0  0  0  0  0  0
   13.4289   16.6847   29.1414 H   0  0  0  0  0  0
   16.2038   16.5325   32.4013 H   0  0  0  0  0  0
  1  2  3  0  0  0
  1 39  1  0  0  0
  2  3  1  0  0  0
  3  4  1  0  0  0
  3 40  1  0  0  0
  3 41  1  0  0  0
  4  5  1  0  0  0
  4 20  1  0  0  0
  5 42  1  0  0  0
  5 43  1  0  0  0
  5  6  1  0  0  0
  6 11  2  0  0  0
  6  7  1  0  0  0
  7 44  1  0  0  0
  7  8  2  0  0  0
  8 45  1  0  0  0
  8  9  1  0  0  0
  9 10  2  0  0  0
  9 15  1  0  0  0
 10 12  1  0  0  0
 10 11  1  0  0  0
 11 46  1  0  0  0
 12 19  2  0  0  0
 12 13  1  0  0  0
 13 14  2  0  0  0
 14 15  1  0  0  0
 14 16  1  0  0  0
 15 49  1  0  0  0
 16 17  1  0  0  0
 16 47  1  0  0  0
 16 48  1  0  0  0
 17 18  3  0  0  0
 20 25  1  0  0  0
 20 21  2  0  0  0
 21 22  1  0  0  0
 21 50  1  0  0  0
 22 23  2  0  0  0
 22 51  1  0  0  0
 23 24  1  0  0  0
 23 26  1  0  0  0
 24 25  2  0  0  0
 24 52  1  0  0  0
 25 53  1  0  0  0
 26 27  2  0  0  0
 26 28  1  0  0  0
 28 29  1  0  0  0
 28 54  1  0  0  0
 29 30  1  0  0  0
 29 55  1  0  0  0
 29 56  1  0  0  0
 30 35  1  0  0  0
 30 31  2  0  0  0
 31 32  1  0  0  0
 31 57  1  0  0  0
 32 33  2  0  0  0
 32 58  1  0  0  0
 33 34  1  0  0  0
 33 59  1  0  0  0
 34 35  2  0  0  0
 34 36  1  0  0  0
 35 60  1  0  0  0
 36 37  1  0  0  0
 36 38  2  0  0  0
M  CHG  2  36   1  37  -1
M  END
> <s_m_entry_id>
41886

> <s_m_entry_name>
ligand_docking-pose.246

> <s_m_Source_Path>
/home/csk/Desktop/cluster/DUD-E-result/tysy

> <s_m_Source_File>
ligand_docking-pose.sdf

> <i_m_Source_File_Index>
246

> <i_lp_mmshare_version>
53161

> <i_f3d_flags>
0

> <r_lp_tautomer_probability>
0.116051

> <s_lp_Force_Field>
OPLS_2005

> <r_lp_Energy>
26.334485

> <b_lp_Chiralities_Consistent>
1

> <s_lp_Variant>
268614-2

> <s_i_glide_gridfile>
glide-grid_1syn

> <i_i_glide_lignum>
767

> <i_i_glide_rotatable_bonds>
11

> <r_i_docking_score>
-7.40863897604285

> <r_i_glide_ligand_efficiency>
-0.194964183580075

> <r_i_glide_ligand_efficiency_sa>
-0.65546478960808

> <r_i_glide_ligand_efficiency_ln>
-1.59752050331286

> <r_i_glide_gscore>
-7.40863897604285

> <r_i_glide_lipo>
-3.77458663022032

> <r_i_glide_hbond>
-0.32

> <r_i_glide_metal>
0

> <r_i_glide_rewards>
-0.626843469794921

> <r_i_glide_evdw>
-52.7637176513672

> <r_i_glide_ecoul>
-5.38272142410278

> <r_i_glide_erotb>
0.797511256592172

> <r_i_glide_esite>
-0.0391260364360002

> <r_i_glide_emodel>
-76.4200004521258

> <r_i_glide_energy>
-58.14643907547

> <r_i_glide_einternal>
13.2203283309937

> <i_i_glide_confnum>
2

> <i_i_glide_posenum>
103

> <r_i_glide_eff_state_penalty>
0

> <s_user_duplicate_titles>
268614

> <s_m_subgroup_title>
dock_pv

> <s_m_subgroupid>
dock_pv1

> <b_m_subgroup_collapsed>
0

$$$$
151968
                    3D
 Schrodinger Suite 2021-1.
 62 64  0  0  1  0            999 V2000
   15.9478   15.3356   28.9043 C   0  0  0  0  0  0
   15.0742   16.1985   29.7943 C   0  0  0  0  0  0
   14.0776   16.9978   29.2296 C   0  0  0  0  0  0
   13.2900   17.7900   30.0589 C   0  0  0  0  0  0
   13.4393   17.8264   31.4042 N   0  0  0  0  0  0
   14.4232   17.0739   31.9704 C   0  0  0  0  0  0
   15.2840   16.2249   31.2085 C   0  0  0  0  0  0
   16.3062   15.4948   31.8909 C   0  0  0  0  0  0
   16.4942   15.6386   33.2701 C   0  0  0  0  0  0
   15.6296   16.4725   33.9819 C   0  0  0  0  0  0
   14.6011   17.1694   33.3638 C   0  0  0  0  0  0
   17.7202   15.0065   33.9575 C   0  0  0  0  0  0
   17.5634   13.6086   34.4128 N   0  0  0  0  0  0
   18.5594   12.6425   33.8872 C   0  0  0  0  0  0
   18.9918   11.5556   34.7928 C   0  0  0  0  0  0
   19.3330   10.6282   35.5109 C   0  0  0  0  0  0
   16.5657   13.2646   35.3731 C   0  0  0  0  0  0
   16.0428   11.9645   35.4684 C   0  0  0  0  0  0
   15.0565   11.6395   36.3944 C   0  0  0  0  0  0
   14.5552   12.6170   37.2558 C   0  0  0  0  0  0
   15.0547   13.9191   37.1564 C   0  0  0  0  0  0
   16.0626   14.2249   36.2521 C   0  0  0  0  0  0
   13.5593   12.2440   38.3254 C   0  0  0  0  0  0
   13.3851   11.0686   38.6506 O   0  0  0  0  0  0
   12.9268   13.2682   38.9273 N   0  0  0  0  0  0
   11.9920   13.2163   40.0560 C   0  0  1  0  0  0
   10.6973   12.4426   39.6955 C   0  0  0  0  0  0
    9.7287   13.2737   38.8317 C   0  0  0  0  0  0
    8.3845   12.5771   38.6216 C   0  0  0  0  0  0
    8.1826   11.3864   38.8495 O   0  0  0  0  0  0
    7.4303   13.4289   38.1547 O   0  0  0  0  0  0
   12.6275   12.7521   41.3833 C   0  0  0  0  0  0
   12.6040   13.4287   42.3909 O   0  0  0  0  0  0
   13.1375   11.4914   41.2843 O   0  0  0  0  0  0
   12.1993   18.6808   29.4947 C   0  0  0  0  0  0
   11.7136   14.2504   40.2516 H   0  0  0  0  0  0
   15.8839   14.2845   29.1926 H   0  0  0  0  0  0
   16.9902   15.6496   28.9791 H   0  0  0  0  0  0
   15.6521   15.4197   27.8582 H   0  0  0  0  0  0
   13.9187   17.0113   28.1591 H   0  0  0  0  0  0
   16.9821   14.8667   31.3254 H   0  0  0  0  0  0
   15.7543   16.6263   35.0367 H   0  0  0  0  0  0
   13.9578   17.8232   33.9380 H   0  0  0  0  0  0
   18.5476   15.0727   33.2491 H   0  0  0  0  0  0
   18.0382   15.6279   34.7960 H   0  0  0  0  0  0
   18.1894   12.1765   32.9740 H   0  0  0  0  0  0
   19.4772   13.1600   33.6034 H   0  0  0  0  0  0
   19.6373    9.8285   36.1443 H   0  0  0  0  0  0
   16.3808   11.1896   34.8027 H   0  0  0  0  0  0
   14.6961   10.6232   36.4361 H   0  0  0  0  0  0
   14.7323   14.7011   37.8262 H   0  0  0  0  0  0
   16.4859   15.2114   36.2971 H   0  0  0  0  0  0
   13.1019   14.1919   38.5617 H   0  0  0  0  0  0
   10.9216   11.5100   39.1765 H   0  0  0  0  0  0
   10.1919   12.1314   40.6060 H   0  0  0  0  0  0
    9.5380   14.2360   39.3093 H   0  0  0  0  0  0
   10.1700   13.4868   37.8550 H   0  0  0  0  0  0
    7.7296   14.3439   38.0843 H   0  0  0  0  0  0
   13.1409   11.1855   40.3636 H   0  0  0  0  0  0
   12.3634   18.8987   28.4402 H   0  0  0  0  0  0
   11.2274   18.2018   29.5944 H   0  0  0  0  0  0
   12.1597   19.6351   30.0208 H   0  0  0  0  0  0
  1  2  1  0  0  0
  1 37  1  0  0  0
  1 38  1  0  0  0
  1 39  1  0  0  0
  2  7  1  0  0  0
  2  3  2  0  0  0
  3  4  1  0  0  0
  3 40  1  0  0  0
  4  5  2  0  0  0
  4 35  1  0  0  0
  5  6  1  0  0  0
  6 11  2  0  0  0
  6  7  1  0  0  0
  7  8  2  0  0  0
  8  9  1  0  0  0
  8 41  1  0  0  0
  9 10  2  0  0  0
  9 12  1  0  0  0
 10 11  1  0  0  0
 10 42  1  0  0  0
 11 43  1  0  0  0
 12 13  1  0  0  0
 12 44  1  0  0  0
 12 45  1  0  0  0
 13 14  1  0  0  0
 13 17  1  0  0  0
 14 15  1  0  0  0
 14 46  1  0  0  0
 14 47  1  0  0  0
 15 16  3  0  0  0
 16 48  1  0  0  0
 17 22  1  0  0  0
 17 18  2  0  0  0
 18 19  1  0  0  0
 18 49  1  0  0  0
 19 20  2  0  0  0
 19 50  1  0  0  0
 20 21  1  0  0  0
 20 23  1  0  0  0
 21 22  2  0  0  0
 21 51  1  0  0  0
 22 52  1  0  0  0
 23 24  2  0  0  0
 23 25  1  0  0  0
 25 26  1  0  0  0
 25 53  1  0  0  0
 26 36  1  0  0  0
 26 27  1  0  0  0
 26 32  1  0  0  0
 27 28  1  0  0  0
 27 54  1  0  0  0
 27 55  1  0  0  0
 28 29  1  0  0  0
 28 56  1  0  0  0
 28 57  1  0  0  0
 29 30  2  0  0  0
 29 31  1  0  0  0
 31 58  1  0  0  0
 32 33  2  0  0  0
 32 34  1  0  0  0
 34 59  1  0  0  0
 35 60  1  0  0  0
 35 61  1  0  0  0
 35 62  1  0  0  0
M  END
> <s_m_entry_id>
41888

> <s_m_entry_name>
ligand_docking-pose.248

> <s_m_Source_Path>
/home/csk/Desktop/cluster/DUD-E-result/tysy

> <s_m_Source_File>
ligand_docking-pose.sdf

> <i_m_Source_File_Index>
248

> <i_lp_mmshare_version>
53161

> <i_f3d_flags>
0

> <r_lp_tautomer_probability>
1

> <s_lp_Force_Field>
OPLS_2005

> <r_lp_Energy>
16.076504

> <b_lp_Chiralities_Consistent>
1

> <s_lp_Variant>
151968-1

> <s_i_glide_gridfile>
glide-grid_1syn

> <i_i_glide_lignum>
452

> <i_i_glide_rotatable_bonds>
14

> <r_i_docking_score>
-7.37327966958119

> <r_i_glide_ligand_efficiency>
-0.210665133416605

> <r_i_glide_ligand_efficiency_sa>
-0.689099619833779

> <r_i_glide_ligand_efficiency_ln>
-1.61859852859859

> <r_i_glide_gscore>
-7.37327966958119

> <r_i_glide_lipo>
-4.11845157213663

> <r_i_glide_hbond>
-0.140266706652637

> <r_i_glide_metal>
0

> <r_i_glide_rewards>
-0.491069732037374

> <r_i_glide_evdw>
-53.5333290100098

> <r_i_glide_ecoul>
-6.46467113494873

> <r_i_glide_erotb>
1.08257950217868

> <r_i_glide_esite>
-0.0597040401904214

> <r_i_glide_emodel>
-87.6506236942353

> <r_i_glide_energy>
-59.9980001449585

> <r_i_glide_einternal>
4.18498039245605

> <i_i_glide_confnum>
178

> <i_i_glide_posenum>
310

> <r_i_glide_eff_state_penalty>
0

> <s_user_duplicate_titles>
151968

> <s_m_subgroup_title>
dock_pv

> <s_m_subgroupid>
dock_pv1

> <b_m_subgroup_collapsed>
0

$$$$
555
                    3D
 Schrodinger Suite 2021-1.
 59 61  0  0  1  0            999 V2000
    9.7389    9.0635   35.9545 C   0  0  0  0  0  0
   11.1810    9.5087   36.0080 C   0  0  0  0  0  0
   11.4908   10.6841   36.4096 N   0  0  0  0  0  0
   12.8358   11.0826   36.3909 C   0  0  0  0  0  0
   13.1372   12.3798   36.7913 C   0  0  0  0  0  0
   14.4635   12.8085   36.7978 C   0  0  0  0  0  0
   15.4897   11.9431   36.3974 C   0  0  0  0  0  0
   15.1927   10.6385   35.9911 C   0  0  0  0  0  0
   13.8620   10.2137   35.9975 C   0  0  0  0  0  0
   13.4732    8.8304   35.5326 C   0  0  0  0  0  0
   12.1381    8.6280   35.5910 N   0  0  0  0  0  0
   14.2211    7.9766   35.0628 O   0  0  0  0  0  0
   16.9356   12.3649   36.5754 C   0  0  0  0  0  0
   17.7339   12.5106   35.3535 N   0  0  0  0  0  0
   18.9374   11.6803   35.2311 C   0  0  0  0  0  0
   18.7139   10.4709   34.4356 C   0  0  0  0  0  0
   18.5920    9.6040   33.5910 C   0  0  0  0  0  0
   17.4356   13.4981   34.3787 C   0  0  0  0  0  0
   16.5920   14.5732   34.6812 C   0  0  0  0  0  0
   16.1478   15.4280   33.6811 C   0  0  0  0  0  0
   16.5342   15.2225   32.3452 C   0  0  0  0  0  0
   17.4885   14.2408   32.0661 C   0  0  0  0  0  0
   17.9437   13.4038   33.0756 C   0  0  0  0  0  0
   15.8891   15.9760   31.2048 C   0  0  0  0  0  0
   16.1921   15.7540   30.0316 O   0  0  0  0  0  0
   14.9767   16.8867   31.5722 N   0  0  0  0  0  0
   14.1184   17.7508   30.7609 C   0  0  2  0  0  0
   12.9768   18.2734   31.6800 C   0  0  0  0  0  0
   11.7920   18.9477   30.9707 C   0  0  0  0  0  0
   13.4746   19.2080   32.7909 C   0  0  0  0  0  0
   13.5106   17.0324   29.5302 C   0  0  0  0  0  0
   12.8621   16.0079   29.5911 O   0  0  0  0  0  0
   13.7920   17.7259   28.3912 O   0  0  0  0  0  0
   14.7072   18.6031   30.4283 H   0  0  0  0  0  0
    9.4231    8.9089   34.9229 H   0  0  0  0  0  0
    9.5986    8.1302   36.4993 H   0  0  0  0  0  0
    9.0725    9.8067   36.3943 H   0  0  0  0  0  0
   12.3449   13.0444   37.0993 H   0  0  0  0  0  0
   14.6920   13.8064   37.1435 H   0  0  0  0  0  0
   15.9901    9.9713   35.6896 H   0  0  0  0  0  0
   11.8296    7.7869   35.1138 H   0  0  0  0  0  0
   17.3612   11.5756   37.1888 H   0  0  0  0  0  0
   16.9826   13.2768   37.1621 H   0  0  0  0  0  0
   19.7655   12.2458   34.7985 H   0  0  0  0  0  0
   19.2942   11.3513   36.2040 H   0  0  0  0  0  0
   18.5328    9.0280   32.7020 H   0  0  0  0  0  0
   16.2273   14.7334   35.6824 H   0  0  0  0  0  0
   15.4450   16.1960   33.9672 H   0  0  0  0  0  0
   17.8418   14.0700   31.0576 H   0  0  0  0  0  0
   18.6331   12.6243   32.7913 H   0  0  0  0  0  0
   14.8081   16.9766   32.5594 H   0  0  0  0  0  0
   12.5920   17.3969   32.2002 H   0  0  0  0  0  0
   12.1216   19.7492   30.3086 H   0  0  0  0  0  0
   11.1042   19.3805   31.6974 H   0  0  0  0  0  0
   11.2203   18.2283   30.3810 H   0  0  0  0  0  0
   13.7920   20.1623   32.3767 H   0  0  0  0  0  0
   12.6654   19.4172   33.4888 H   0  0  0  0  0  0
   14.3006   18.7890   33.3648 H   0  0  0  0  0  0
   13.4220   17.2786   27.6260 H   0  0  0  0  0  0
  1 35  1  0  0  0
  1 36  1  0  0  0
  1 37  1  0  0  0
  1  2  1  0  0  0
  2  3  2  0  0  0
  2 11  1  0  0  0
  3  4  1  0  0  0
  4  9  2  0  0  0
  4  5  1  0  0  0
  5  6  2  0  0  0
  5 38  1  0  0  0
  6  7  1  0  0  0
  6 39  1  0  0  0
  7  8  2  0  0  0
  7 13  1  0  0  0
  8  9  1  0  0  0
  8 40  1  0  0  0
  9 10  1  0  0  0
 10 12  2  0  0  0
 10 11  1  0  0  0
 11 41  1  0  0  0
 13 14  1  0  0  0
 13 42  1  0  0  0
 13 43  1  0  0  0
 14 15  1  0  0  0
 14 18  1  0  0  0
 15 16  1  0  0  0
 15 44  1  0  0  0
 15 45  1  0  0  0
 16 17  3  0  0  0
 17 46  1  0  0  0
 18 23  1  0  0  0
 18 19  2  0  0  0
 19 20  1  0  0  0
 19 47  1  0  0  0
 20 21  2  0  0  0
 20 48  1  0  0  0
 21 22  1  0  0  0
 21 24  1  0  0  0
 22 23  2  0  0  0
 22 49  1  0  0  0
 23 50  1  0  0  0
 24 25  2  0  0  0
 24 26  1  0  0  0
 26 27  1  0  0  0
 26 51  1  0  0  0
 27 34  1  0  0  0
 27 28  1  0  0  0
 27 31  1  0  0  0
 28 29  1  0  0  0
 28 30  1  0  0  0
 28 52  1  0  0  0
 29 53  1  0  0  0
 29 54  1  0  0  0
 29 55  1  0  0  0
 30 56  1  0  0  0
 30 57  1  0  0  0
 30 58  1  0  0  0
 31 32  2  0  0  0
 31 33  1  0  0  0
 33 59  1  0  0  0
M  END
> <s_m_entry_id>
41889

> <s_m_entry_name>
ligand_docking-pose.249

> <s_m_Source_Path>
/home/csk/Desktop/cluster/DUD-E-result/tysy

> <s_m_Source_File>
ligand_docking-pose.sdf

> <i_m_Source_File_Index>
249

> <i_lp_mmshare_version>
53161

> <i_f3d_flags>
0

> <r_lp_tautomer_probability>
0.883938

> <s_lp_Force_Field>
OPLS_2005

> <r_lp_Energy>
24.468836

> <b_lp_Chiralities_Consistent>
1

> <s_lp_Variant>
555-1

> <s_i_glide_gridfile>
glide-grid_1syn

> <i_i_glide_lignum>
572

> <i_i_glide_rotatable_bonds>
11

> <r_i_docking_score>
-7.3694651235061

> <r_i_glide_ligand_efficiency>
-0.22331712495473

> <r_i_glide_ligand_efficiency_sa>
-0.716297343933419

> <r_i_glide_ligand_efficiency_ln>
-1.63893088641947

> <r_i_glide_gscore>
-7.3694651235061

> <r_i_glide_lipo>
-2.32689283673007

> <r_i_glide_hbond>
-0.812165433365677

> <r_i_glide_metal>
0

> <r_i_glide_rewards>
-1.34786001356804

> <r_i_glide_evdw>
-39.6315765380859

> <r_i_glide_ecoul>
-11.8721504211426

> <r_i_glide_erotb>
0.903649261686164

> <r_i_glide_esite>
-0.0237947114527921

> <r_i_glide_emodel>
-69.2975015315513

> <r_i_glide_energy>
-51.5037269592285

> <r_i_glide_einternal>
4.30506706237793

> <i_i_glide_confnum>
43

> <i_i_glide_posenum>
25

> <r_i_glide_eff_state_penalty>
0

> <s_user_duplicate_titles>
555

> <s_m_subgroup_title>
dock_pv

> <s_m_subgroupid>
dock_pv1

> <b_m_subgroup_collapsed>
0

$$$$
602
                    3D
 Schrodinger Suite 2021-1.
 63 66  0  0  1  0            999 V2000
   12.6368   18.4167   29.2285 C   0  0  0  0  0  0
   13.6031   17.5752   30.0307 C   0  0  0  0  0  0
   13.5812   17.7456   31.3987 N   0  0  0  0  0  0
   14.4629   17.0259   32.2095 C   0  0  0  0  0  0
   14.4688   17.1979   33.5874 C   0  0  0  0  0  0
   15.3920   16.4963   34.3603 C   0  0  0  0  0  0
   16.3233   15.6289   33.7676 C   0  0  0  0  0  0
   16.2958   15.4457   32.3790 C   0  0  0  0  0  0
   15.3600   16.1426   31.5978 C   0  0  0  0  0  0
   15.3198   15.9736   30.0842 C   0  0  0  0  0  0
   14.3754   16.7648   29.4124 N   0  0  0  0  0  0
   16.0986   15.1940   29.5420 O   0  0  0  0  0  0
   17.4282   14.9715   34.6074 C   0  0  0  0  0  0
   17.2709   13.5187   34.7933 N   0  0  0  0  0  0
   18.2287   12.6748   34.0409 C   0  0  0  0  0  0
   18.8342   11.5637   34.7953 C   0  0  0  0  0  0
   19.3341   10.6308   35.4032 C   0  0  0  0  0  0
   16.1905   13.0210   35.5927 C   0  0  0  0  0  0
   15.8056   11.6696   35.5912 C   0  0  0  0  0  0
   14.7309   11.2119   36.3520 C   0  0  0  0  0  0
   13.9843   12.1044   37.1240 C   0  0  0  0  0  0
   14.3678   13.4464   37.1670 C   0  0  0  0  0  0
   15.4617   13.8826   36.4289 C   0  0  0  0  0  0
   12.7933   11.6151   37.9043 C   0  0  0  0  0  0
   12.8096   10.5162   38.4620 O   0  0  0  0  0  0
   11.7272   12.4338   37.9117 N   0  0  0  0  0  0
   10.4530   12.1630   38.5851 C   0  0  2  0  0  0
    9.6074   11.0543   37.8844 C   0  0  0  0  0  0
    9.5963   11.0055   36.3606 C   0  0  0  0  0  0
    8.7277   11.8310   35.6167 C   0  0  0  0  0  0
    8.7784   11.8225   34.2284 C   0  0  0  0  0  0
    9.7008   11.0209   33.5664 C   0  0  0  0  0  0
   10.5835   10.2290   34.2870 C   0  0  0  0  0  0
   10.5487   10.2217   35.6736 C   0  0  0  0  0  0
    9.6790   13.4648   38.8736 C   0  0  0  0  0  0
    9.3892   13.8306   39.9910 O   0  0  0  0  0  0
    9.3922   14.1547   37.7350 O   0  0  0  0  0  0
   10.6901   11.7841   39.5820 H   0  0  0  0  0  0
   12.7899   18.3015   28.1546 H   0  0  0  0  0  0
   11.6045   18.1425   29.4478 H   0  0  0  0  0  0
   12.7562   19.4741   29.4635 H   0  0  0  0  0  0
   13.7797   17.8845   34.0561 H   0  0  0  0  0  0
   15.3918   16.6695   35.4253 H   0  0  0  0  0  0
   17.0153   14.7793   31.9174 H   0  0  0  0  0  0
   12.9555   18.4163   31.8141 H   0  0  0  0  0  0
   18.3702   15.1985   34.1076 H   0  0  0  0  0  0
   17.5354   15.4280   35.5886 H   0  0  0  0  0  0
   17.7907   12.2523   33.1404 H   0  0  0  0  0  0
   19.0803   13.2619   33.6914 H   0  0  0  0  0  0
   19.7898    9.8291   35.9333 H   0  0  0  0  0  0
   16.3089   10.9501   34.9668 H   0  0  0  0  0  0
   14.4595   10.1658   36.3036 H   0  0  0  0  0  0
   13.8421   14.1621   37.7838 H   0  0  0  0  0  0
   15.7349   14.9152   36.5483 H   0  0  0  0  0  0
   11.7539   13.2803   37.3631 H   0  0  0  0  0  0
    9.9441   10.0782   38.2403 H   0  0  0  0  0  0
    8.5672   11.1150   38.2146 H   0  0  0  0  0  0
    8.0168   12.4691   36.1199 H   0  0  0  0  0  0
    8.1053   12.4477   33.6601 H   0  0  0  0  0  0
    9.7330   11.0125   32.4857 H   0  0  0  0  0  0
   11.2972    9.6076   33.7660 H   0  0  0  0  0  0
   11.2459    9.6033   36.2200 H   0  0  0  0  0  0
    8.8864   14.9447   37.9606 H   0  0  0  0  0  0
  1 39  1  0  0  0
  1 40  1  0  0  0
  1 41  1  0  0  0
  1  2  1  0  0  0
  2  3  1  0  0  0
  2 11  2  0  0  0
  3  4  1  0  0  0
  3 45  1  0  0  0
  4  9  2  0  0  0
  4  5  1  0  0  0
  5  6  2  0  0  0
  5 42  1  0  0  0
  6  7  1  0  0  0
  6 43  1  0  0  0
  7  8  2  0  0  0
  7 13  1  0  0  0
  8  9  1  0  0  0
  8 44  1  0  0  0
  9 10  1  0  0  0
 10 12  2  0  0  0
 10 11  1  0  0  0
 13 14  1  0  0  0
 13 46  1  0  0  0
 13 47  1  0  0  0
 14 15  1  0  0  0
 14 18  1  0  0  0
 15 16  1  0  0  0
 15 48  1  0  0  0
 15 49  1  0  0  0
 16 17  3  0  0  0
 17 50  1  0  0  0
 18 23  1  0  0  0
 18 19  2  0  0  0
 19 20  1  0  0  0
 19 51  1  0  0  0
 20 21  2  0  0  0
 20 52  1  0  0  0
 21 22  1  0  0  0
 21 24  1  0  0  0
 22 23  2  0  0  0
 22 53  1  0  0  0
 23 54  1  0  0  0
 24 25  2  0  0  0
 24 26  1  0  0  0
 26 27  1  0  0  0
 26 55  1  0  0  0
 27 38  1  0  0  0
 27 28  1  0  0  0
 27 35  1  0  0  0
 28 29  1  0  0  0
 28 56  1  0  0  0
 28 57  1  0  0  0
 29 34  1  0  0  0
 29 30  2  0  0  0
 30 31  1  0  0  0
 30 58  1  0  0  0
 31 32  2  0  0  0
 31 59  1  0  0  0
 32 33  1  0  0  0
 32 60  1  0  0  0
 33 34  2  0  0  0
 33 61  1  0  0  0
 34 62  1  0  0  0
 35 36  2  0  0  0
 35 37  1  0  0  0
 37 63  1  0  0  0
M  END
> <s_m_entry_id>
41890

> <s_m_entry_name>
ligand_docking-pose.250

> <s_m_Source_Path>
/home/csk/Desktop/cluster/DUD-E-result/tysy

> <s_m_Source_File>
ligand_docking-pose.sdf

> <i_m_Source_File_Index>
250

> <i_lp_mmshare_version>
53161

> <i_f3d_flags>
0

> <r_lp_tautomer_probability>
0.116051

> <s_lp_Force_Field>
OPLS_2005

> <r_lp_Energy>
22.92693

> <b_lp_Chiralities_Consistent>
1

> <s_lp_Variant>
602-2

> <s_i_glide_gridfile>
glide-grid_1syn

> <i_i_glide_lignum>
569

> <i_i_glide_rotatable_bonds>
12

> <r_i_docking_score>
-7.3693621320191

> <r_i_glide_ligand_efficiency>
-0.19917194951403

> <r_i_glide_ligand_efficiency_sa>
-0.663685121606737

> <r_i_glide_ligand_efficiency_ln>
-1.59824188407488

> <r_i_glide_gscore>
-7.3693621320191

> <r_i_glide_lipo>
-3.64506192473341

> <r_i_glide_hbond>
0

> <r_i_glide_metal>
0

> <r_i_glide_rewards>
-0.629336487889

> <r_i_glide_evdw>
-57.2574844360352

> <r_i_glide_ecoul>
-7.09895801544189

> <r_i_glide_erotb>
0.833262327047102

> <r_i_glide_esite>
-0.000508122325740773

> <r_i_glide_emodel>
-89.5593293986948

> <r_i_glide_energy>
-64.3564424514771

> <r_i_glide_einternal>
7.05556726455688

> <i_i_glide_confnum>
18

> <i_i_glide_posenum>
158

> <r_i_glide_eff_state_penalty>
0

> <s_user_duplicate_titles>
602

> <s_m_subgroup_title>
dock_pv

> <s_m_subgroupid>
dock_pv1

> <b_m_subgroup_collapsed>
0

$$$$
60979
                    3D
 Schrodinger Suite 2021-1.
 56 58  0  0  1  0            999 V2000
   14.1920   14.4018   37.8795 C   0  0  0  0  0  0
   14.1810   14.7480   36.3754 C   0  0  0  0  0  0
   15.2890   14.1918   35.5911 N   0  0  0  0  0  0
   16.1145   15.1590   34.8428 C   0  0  0  0  0  0
   15.3773   16.0325   33.8130 C   0  0  0  0  0  0
   14.6487   17.1690   34.2049 C   0  0  0  0  0  0
   13.9628   17.9421   33.2704 C   0  0  0  0  0  0
   14.0219   17.6093   31.9251 C   0  0  0  0  0  0
   14.7918   16.5183   31.5112 C   0  0  0  0  0  0
   15.4828   15.7385   32.4457 C   0  0  0  0  0  0
   14.8489   16.2265   30.0293 C   0  0  0  0  0  0
   14.1002   17.0905   29.2980 N   0  0  0  0  0  0
   13.3510   18.1336   29.7694 C   0  0  0  0  0  0
   13.2864   18.3860   31.0225 N   0  0  0  0  0  0
   12.5672   18.9717   28.7887 C   0  0  0  0  0  0
   15.4917   15.3345   29.4890 O   0  0  0  0  0  0
   15.6291   12.8570   35.6998 C   0  0  0  0  0  0
   16.8661   12.2242   35.5909 C   0  0  0  0  0  0
   16.8767   10.9164   35.7739 N   0  0  0  0  0  0
   15.6851   10.4343   36.0463 C   0  0  0  0  0  0
   14.4298   11.6315   35.9928 S   0  0  0  0  0  0
   15.3052    9.0742   36.2755 C   0  0  0  0  0  0
   15.7860    8.1820   35.5911 O   0  0  0  0  0  0
   14.4318    8.8716   37.2843 N   0  0  0  0  0  0
   13.7975    7.6116   37.7073 C   0  0  2  0  0  0
   14.8185    6.4538   37.9057 C   0  0  0  0  0  0
   14.2370    5.1729   38.5390 C   0  0  0  0  0  0
   15.3167    4.1115   38.7368 C   0  0  0  0  0  0
   15.8858    3.9102   39.8087 O   0  0  0  0  0  0
   15.5919    3.4267   37.5912 O   0  0  0  0  0  0
   12.5928    7.2716   36.8059 C   0  0  0  0  0  0
   11.4427    7.4256   37.1565 O   0  0  0  0  0  0
   12.9920    6.8049   35.5910 O   0  0  0  0  0  0
   13.3804    7.8272   38.6924 H   0  0  0  0  0  0
   13.4376   14.9762   38.4095 H   0  0  0  0  0  0
   13.9734   13.3575   38.0846 H   0  0  0  0  0  0
   15.1549   14.6279   38.3269 H   0  0  0  0  0  0
   14.1974   15.8278   36.3204 H   0  0  0  0  0  0
   13.2384   14.4392   35.9226 H   0  0  0  0  0  0
   16.5919   15.7897   35.5783 H   0  0  0  0  0  0
   16.9293   14.6411   34.3369 H   0  0  0  0  0  0
   14.5960   17.4816   35.2317 H   0  0  0  0  0  0
   13.3892   18.8000   33.5880 H   0  0  0  0  0  0
   16.0870   14.9034   32.1168 H   0  0  0  0  0  0
   11.5190   18.6743   28.7916 H   0  0  0  0  0  0
   12.5926   20.0257   29.0637 H   0  0  0  0  0  0
   12.9539   18.8842   27.7729 H   0  0  0  0  0  0
   14.1335   16.9165   28.3073 H   0  0  0  0  0  0
   17.8031   12.7217   35.3887 H   0  0  0  0  0  0
   14.0941    9.6927   37.7619 H   0  0  0  0  0  0
   15.6271    6.8150   38.5444 H   0  0  0  0  0  0
   15.2836    6.1844   36.9567 H   0  0  0  0  0  0
   13.4335    4.7578   37.9277 H   0  0  0  0  0  0
   13.8000    5.4055   39.5102 H   0  0  0  0  0  0
   15.0339    3.6807   36.8456 H   0  0  0  0  0  0
   12.2225    6.7054   35.0108 H   0  0  0  0  0  0
  1  2  1  0  0  0
  1 35  1  0  0  0
  1 36  1  0  0  0
  1 37  1  0  0  0
  2  3  1  0  0  0
  2 38  1  0  0  0
  2 39  1  0  0  0
  3  4  1  0  0  0
  3 17  1  0  0  0
  4 40  1  0  0  0
  4 41  1  0  0  0
  4  5  1  0  0  0
  5 10  2  0  0  0
  5  6  1  0  0  0
  6 42  1  0  0  0
  6  7  2  0  0  0
  7 43  1  0  0  0
  7  8  1  0  0  0
  8  9  2  0  0  0
  8 14  1  0  0  0
  9 11  1  0  0  0
  9 10  1  0  0  0
 10 44  1  0  0  0
 11 16  2  0  0  0
 11 12  1  0  0  0
 12 13  1  0  0  0
 12 48  1  0  0  0
 13 14  2  0  0  0
 13 15  1  0  0  0
 15 45  1  0  0  0
 15 46  1  0  0  0
 15 47  1  0  0  0
 17 21  1  0  0  0
 17 18  2  0  0  0
 18 19  1  0  0  0
 18 49  1  0  0  0
 19 20  2  0  0  0
 20 21  1  0  0  0
 20 22  1  0  0  0
 22 23  2  0  0  0
 22 24  1  0  0  0
 24 25  1  0  0  0
 24 50  1  0  0  0
 25 34  1  0  0  0
 25 26  1  0  0  0
 25 31  1  0  0  0
 26 27  1  0  0  0
 26 51  1  0  0  0
 26 52  1  0  0  0
 27 28  1  0  0  0
 27 53  1  0  0  0
 27 54  1  0  0  0
 28 29  2  0  0  0
 28 30  1  0  0  0
 30 55  1  0  0  0
 31 32  2  0  0  0
 31 33  1  0  0  0
 33 56  1  0  0  0
M  END
> <s_m_entry_id>
41893

> <s_m_entry_name>
ligand_docking-pose.253

> <s_m_Source_Path>
/home/csk/Desktop/cluster/DUD-E-result/tysy

> <s_m_Source_File>
ligand_docking-pose.sdf

> <i_m_Source_File_Index>
253

> <i_lp_mmshare_version>
53161

> <i_f3d_flags>
0

> <r_lp_tautomer_probability>
0.883938

> <s_lp_Force_Field>
OPLS_2005

> <r_lp_Energy>
19.136969

> <b_lp_Chiralities_Consistent>
1

> <s_lp_Variant>
60979-1

> <s_i_glide_gridfile>
glide-grid_1syn

> <i_i_glide_lignum>
863

> <i_i_glide_rotatable_bonds>
13

> <r_i_docking_score>
-7.32714466917383

> <r_i_glide_ligand_efficiency>
-0.222034686944661

> <r_i_glide_ligand_efficiency_sa>
-0.712183879994826

> <r_i_glide_ligand_efficiency_ln>
-1.62951903649956

> <r_i_glide_gscore>
-7.32714466917383

> <r_i_glide_lipo>
-3.34315193810364

> <r_i_glide_hbond>
0

> <r_i_glide_metal>
0

> <r_i_glide_rewards>
-0.919613344042221

> <r_i_glide_evdw>
-47.4368324279785

> <r_i_glide_ecoul>
-10.5244112014771

> <r_i_glide_erotb>
0.902209274040011

> <r_i_glide_esite>
-0.0160853594474971

> <r_i_glide_emodel>
-83.4933474913824

> <r_i_glide_energy>
-57.9612436294556

> <r_i_glide_einternal>
9.32668876647949

> <i_i_glide_confnum>
8

> <i_i_glide_posenum>
308

> <r_i_glide_eff_state_penalty>
0

> <s_user_duplicate_titles>
60979

> <s_m_subgroup_title>
dock_pv

> <s_m_subgroupid>
dock_pv1

> <b_m_subgroup_collapsed>
0

$$$$
410
                    3D
 Schrodinger Suite 2021-1.
 59 62  0  0  1  0            999 V2000
   13.2574   10.5940   41.3178 C   0  0  0  0  0  0
   13.4593    9.8578   39.9997 C   0  0  0  0  0  0
   13.5091    8.4631   40.0287 C   0  0  0  0  0  0
   13.7163    7.7419   38.8634 C   0  0  0  0  0  0
   13.8436    8.4076   37.6417 C   0  0  0  0  0  0
   13.7806    9.8068   37.5888 C   0  0  0  0  0  0
   13.6040   10.5455   38.7759 C   0  0  0  0  0  0
   13.6268   12.0838   38.7851 C   0  0  0  0  0  0
   13.2681   12.7531   37.5290 N   0  0  0  0  0  0
   11.8480   13.0950   37.3471 C   0  0  0  0  0  0
   11.1628   12.2151   36.3855 C   0  0  0  0  0  0
   10.5923   11.4794   35.5942 C   0  0  0  0  0  0
   14.2976   13.3208   36.7246 C   0  0  0  0  0  0
   15.5578   12.7075   36.6270 C   0  0  0  0  0  0
   16.5525   13.2106   35.7827 C   0  0  0  0  0  0
   16.3319   14.3837   35.0517 C   0  0  0  0  0  0
   15.1022   15.0403   35.1918 C   0  0  0  0  0  0
   14.0977   14.4973   35.9893 C   0  0  0  0  0  0
   14.8317   16.1764   34.5051 F   0  0  0  0  0  0
   17.2985   14.8389   33.9908 C   0  0  0  0  0  0
   17.7979   15.9633   33.9911 O   0  0  0  0  0  0
   17.3935   14.0012   32.9472 N   0  0  0  0  0  0
   17.7050   14.4277   31.5795 C   0  0  0  0  0  0
   16.5079   15.0497   30.8433 C   0  0  0  0  0  0
   15.7926   16.1464   31.3524 C   0  0  0  0  0  0
   14.7468   16.6843   30.6032 C   0  0  0  0  0  0
   14.4376   16.1273   29.3648 C   0  0  0  0  0  0
   15.1751   15.0259   28.9289 C   0  0  0  0  0  0
   16.1918   14.4865   29.6477 N   0  0  0  0  0  0
   14.0458    7.5549   36.4037 C   0  0  0  0  0  0
   14.0773    6.2280   36.6901 N   0  0  0  0  0  0
   13.9841    5.6435   37.9195 C   0  0  0  0  0  0
   13.8138    6.3468   38.9742 N   0  0  0  0  0  0
   14.0831    4.1391   38.0032 C   0  0  0  0  0  0
   14.1784    7.9506   35.2480 O   0  0  0  0  0  0
   12.3244   11.1570   41.2963 H   0  0  0  0  0  0
   13.2216    9.9162   42.1709 H   0  0  0  0  0  0
   14.0706   11.2997   41.4895 H   0  0  0  0  0  0
   13.3921    7.9214   40.9544 H   0  0  0  0  0  0
   13.8795   10.3179   36.6401 H   0  0  0  0  0  0
   12.9401   12.4419   39.5510 H   0  0  0  0  0  0
   14.5957   12.4220   39.1290 H   0  0  0  0  0  0
   11.3075   12.9720   38.2862 H   0  0  0  0  0  0
   11.6803   14.1378   37.0839 H   0  0  0  0  0  0
   10.1092   10.8360   34.8925 H   0  0  0  0  0  0
   15.7682   11.8012   37.1739 H   0  0  0  0  0  0
   17.4863   12.6729   35.6913 H   0  0  0  0  0  0
   13.1582   15.0219   35.9927 H   0  0  0  0  0  0
   17.0285   13.0674   33.0506 H   0  0  0  0  0  0
   18.5232   15.1515   31.5808 H   0  0  0  0  0  0
   18.0739   13.5554   31.0351 H   0  0  0  0  0  0
   16.0530   16.6074   32.2914 H   0  0  0  0  0  0
   14.1970   17.5397   30.9708 H   0  0  0  0  0  0
   13.6500   16.5494   28.7594 H   0  0  0  0  0  0
   14.9696   14.5615   27.9763 H   0  0  0  0  0  0
   14.1823    3.8005   39.0348 H   0  0  0  0  0  0
   13.1898    3.6704   37.5912 H   0  0  0  0  0  0
   14.9497    3.7705   37.4539 H   0  0  0  0  0  0
   14.1600    5.6198   35.8914 H   0  0  0  0  0  0
  1 36  1  0  0  0
  1 37  1  0  0  0
  1 38  1  0  0  0
  1  2  1  0  0  0
  2  7  1  0  0  0
  2  3  2  0  0  0
  3 39  1  0  0  0
  3  4  1  0  0  0
  4  5  2  0  0  0
  4 33  1  0  0  0
  5 30  1  0  0  0
  5  6  1  0  0  0
  6 40  1  0  0  0
  6  7  2  0  0  0
  7  8  1  0  0  0
  8  9  1  0  0  0
  8 41  1  0  0  0
  8 42  1  0  0  0
  9 10  1  0  0  0
  9 13  1  0  0  0
 10 11  1  0  0  0
 10 43  1  0  0  0
 10 44  1  0  0  0
 11 12  3  0  0  0
 12 45  1  0  0  0
 13 18  1  0  0  0
 13 14  2  0  0  0
 14 15  1  0  0  0
 14 46  1  0  0  0
 15 16  2  0  0  0
 15 47  1  0  0  0
 16 17  1  0  0  0
 16 20  1  0  0  0
 17 18  2  0  0  0
 17 19  1  0  0  0
 18 48  1  0  0  0
 20 21  2  0  0  0
 20 22  1  0  0  0
 22 23  1  0  0  0
 22 49  1  0  0  0
 23 24  1  0  0  0
 23 50  1  0  0  0
 23 51  1  0  0  0
 24 29  1  0  0  0
 24 25  2  0  0  0
 25 26  1  0  0  0
 25 52  1  0  0  0
 26 27  2  0  0  0
 26 53  1  0  0  0
 27 28  1  0  0  0
 27 54  1  0  0  0
 28 29  2  0  0  0
 28 55  1  0  0  0
 30 35  2  0  0  0
 30 31  1  0  0  0
 31 32  1  0  0  0
 31 59  1  0  0  0
 32 33  2  0  0  0
 32 34  1  0  0  0
 34 56  1  0  0  0
 34 57  1  0  0  0
 34 58  1  0  0  0
M  END
> <s_m_entry_id>
41894

> <s_m_entry_name>
ligand_docking-pose.254

> <s_m_Source_Path>
/home/csk/Desktop/cluster/DUD-E-result/tysy

> <s_m_Source_File>
ligand_docking-pose.sdf

> <i_m_Source_File_Index>
254

> <i_lp_mmshare_version>
53161

> <i_f3d_flags>
0

> <r_lp_tautomer_probability>
0.883938

> <s_lp_Force_Field>
OPLS_2005

> <r_lp_Energy>
25.775436

> <b_lp_Chiralities_Consistent>
1

> <s_lp_Variant>
410-1

> <s_i_glide_gridfile>
glide-grid_1syn

> <i_i_glide_lignum>
193

> <i_i_glide_rotatable_bonds>
9

> <r_i_docking_score>
-7.3192261605644

> <r_i_glide_ligand_efficiency>
-0.209120747444697

> <r_i_glide_ligand_efficiency_sa>
-0.684047830917129

> <r_i_glide_ligand_efficiency_ln>
-1.6067325837164

> <r_i_glide_gscore>
-7.3192261605644

> <r_i_glide_lipo>
-3.50773890310809

> <r_i_glide_hbond>
-0.275769682195643

> <r_i_glide_metal>
0

> <r_i_glide_rewards>
-0.973554278556351

> <r_i_glide_evdw>
-51.0870056152344

> <r_i_glide_ecoul>
-4.79815626144409

> <r_i_glide_erotb>
0.733009486734473

> <r_i_glide_esite>
-0.0210990634604545

> <r_i_glide_emodel>
-72.144586202215

> <r_i_glide_energy>
-55.8851618766785

> <r_i_glide_einternal>
13.9930000305176

> <i_i_glide_confnum>
20

> <i_i_glide_posenum>
54

> <r_i_glide_eff_state_penalty>
0

> <s_user_duplicate_titles>
410

> <s_m_subgroup_title>
dock_pv

> <s_m_subgroupid>
dock_pv1

> <b_m_subgroup_collapsed>
0

$$$$
207492
                    3D
 Schrodinger Suite 2021-1.
 64 67  0  0  1  0            999 V2000
   15.3919    8.5311   35.8582 C   0  0  0  0  0  0
   14.2037    9.4632   35.9909 C   0  0  0  0  0  0
   12.9924    9.0268   35.4521 C   0  0  0  0  0  0
   11.8624    9.8207   35.5480 C   0  0  0  0  0  0
   11.8998   11.0353   36.2332 C   0  0  0  0  0  0
   13.1049   11.4692   36.7977 C   0  0  0  0  0  0
   14.2788   10.7166   36.6368 C   0  0  0  0  0  0
   15.5917   11.2654   37.2116 C   0  0  0  0  0  0
   16.5709   11.6701   36.1805 N   0  0  0  0  0  0
   17.8640   10.9669   36.1892 C   0  0  0  0  0  0
   18.2245   10.2817   34.9414 C   0  0  0  0  0  0
   18.5920    9.7866   33.8908 C   0  0  0  0  0  0
   16.5028   12.9681   35.5856 C   0  0  0  0  0  0
   15.4110   13.8226   35.8074 C   0  0  0  0  0  0
   15.2723   15.0275   35.1273 C   0  0  0  0  0  0
   16.2477   15.4308   34.2150 C   0  0  0  0  0  0
   17.3914   14.6509   34.0420 C   0  0  0  0  0  0
   17.5096   13.4404   34.7199 C   0  0  0  0  0  0
   18.3707   15.0272   33.1872 F   0  0  0  0  0  0
   16.0098   16.6498   33.3850 C   0  0  0  0  0  0
   16.5920   17.7042   33.5910 O   0  0  0  0  0  0
   15.0872   16.4791   32.4410 N   0  0  0  0  0  0
   14.4877   17.5116   31.5884 C   0  0  1  0  0  0
   13.9313   16.8690   30.2856 C   0  0  0  0  0  0
   13.1835   15.5265   30.5316 C   0  0  0  0  0  0
   11.7914   15.3928   29.9903 C   0  0  0  0  0  0
   11.1834   14.2281   29.9141 N   0  0  0  0  0  0
    9.9962   14.5675   29.4057 N   0  0  3  0  0  0
    9.8479   15.8713   29.1910 N   0  0  0  0  0  0
   11.0533   16.4140   29.5910 N   0  0  0  0  0  0
   13.4037   18.3048   32.3652 C   0  0  0  0  0  0
   12.9922   17.9902   33.4642 O   0  0  0  0  0  0
   12.9947   19.3894   31.6420 O   0  0  0  0  0  0
   10.6325   11.8754   36.3320 C   0  0  0  0  0  0
    9.5141   11.3578   35.6625 N   0  0  0  0  0  0
    9.5534   10.2434   35.0360 C   0  0  0  0  0  0
   10.6643    9.4285   34.9556 N   0  0  0  0  0  0
    8.3087    9.7629   34.3280 C   0  0  0  0  0  0
   10.6513   12.9256   36.9725 O   0  0  0  0  0  0
   15.2659   18.2270   31.3283 H   0  0  0  0  0  0
    9.2700   13.8935   29.2070 H   0  0  0  0  0  0
   15.8928    8.7160   34.9105 H   0  0  0  0  0  0
   16.0963    8.6514   36.6766 H   0  0  0  0  0  0
   15.0763    7.4872   35.8823 H   0  0  0  0  0  0
   12.9273    8.0787   34.9415 H   0  0  0  0  0  0
   13.1283   12.4001   37.3472 H   0  0  0  0  0  0
   15.3915   12.1033   37.8803 H   0  0  0  0  0  0
   16.0055   10.5034   37.8706 H   0  0  0  0  0  0
   18.6680   11.6719   36.3909 H   0  0  0  0  0  0
   17.9173   10.2280   36.9839 H   0  0  0  0  0  0
   18.9246    9.4239   32.9456 H   0  0  0  0  0  0
   14.6227   13.5672   36.4855 H   0  0  0  0  0  0
   14.3885   15.6291   35.2952 H   0  0  0  0  0  0
   18.3972   12.8677   34.5076 H   0  0  0  0  0  0
   14.6923   15.5571   32.3472 H   0  0  0  0  0  0
   13.3222   17.5873   29.7340 H   0  0  0  0  0  0
   14.7666   16.6756   29.6105 H   0  0  0  0  0  0
   13.8106   14.6829   30.2372 H   0  0  0  0  0  0
   13.0168   15.4277   31.5910 H   0  0  0  0  0  0
   13.5255   19.5485   30.8574 H   0  0  0  0  0  0
    7.4974   10.4889   34.3927 H   0  0  0  0  0  0
    8.5086    9.5910   33.2701 H   0  0  0  0  0  0
    7.9520    8.8303   34.7637 H   0  0  0  0  0  0
   10.6557    8.5611   34.4255 H   0  0  0  0  0  0
  1 42  1  0  0  0
  1 43  1  0  0  0
  1 44  1  0  0  0
  1  2  1  0  0  0
  2  7  1  0  0  0
  2  3  2  0  0  0
  3 45  1  0  0  0
  3  4  1  0  0  0
  4  5  2  0  0  0
  4 37  1  0  0  0
  5 34  1  0  0  0
  5  6  1  0  0  0
  6 46  1  0  0  0
  6  7  2  0  0  0
  7  8  1  0  0  0
  8  9  1  0  0  0
  8 47  1  0  0  0
  8 48  1  0  0  0
  9 10  1  0  0  0
  9 13  1  0  0  0
 10 11  1  0  0  0
 10 49  1  0  0  0
 10 50  1  0  0  0
 11 12  3  0  0  0
 12 51  1  0  0  0
 13 18  1  0  0  0
 13 14  2  0  0  0
 14 15  1  0  0  0
 14 52  1  0  0  0
 15 16  2  0  0  0
 15 53  1  0  0  0
 16 17  1  0  0  0
 16 20  1  0  0  0
 17 18  2  0  0  0
 17 19  1  0  0  0
 18 54  1  0  0  0
 20 21  2  0  0  0
 20 22  1  0  0  0
 22 23  1  0  0  0
 22 55  1  0  0  0
 23 40  1  0  0  0
 23 24  1  0  0  0
 23 31  1  0  0  0
 24 25  1  0  0  0
 24 56  1  0  0  0
 24 57  1  0  0  0
 25 26  1  0  0  0
 25 58  1  0  0  0
 25 59  1  0  0  0
 26 30  1  0  0  0
 26 27  2  0  0  0
 27 28  1  0  0  0
 28 41  1  0  0  0
 28 29  1  0  0  0
 29 30  2  0  0  0
 31 32  2  0  0  0
 31 33  1  0  0  0
 33 60  1  0  0  0
 34 39  2  0  0  0
 34 35  1  0  0  0
 35 36  2  0  0  0
 36 37  1  0  0  0
 36 38  1  0  0  0
 37 64  1  0  0  0
 38 61  1  0  0  0
 38 62  1  0  0  0
 38 63  1  0  0  0
M  END
> <s_m_entry_id>
41897

> <s_m_entry_name>
ligand_docking-pose.257

> <s_m_Source_Path>
/home/csk/Desktop/cluster/DUD-E-result/tysy

> <s_m_Source_File>
ligand_docking-pose.sdf

> <i_m_Source_File_Index>
257

> <i_lp_mmshare_version>
53161

> <i_f3d_flags>
0

> <r_lp_tautomer_probability>
0.0232102

> <s_lp_Force_Field>
OPLS_2005

> <r_lp_Energy>
16.375243

> <b_lp_Chiralities_Consistent>
1

> <s_lp_Variant>
207492-4

> <s_i_glide_gridfile>
glide-grid_1syn

> <i_i_glide_lignum>
264

> <i_i_glide_rotatable_bonds>
13

> <r_i_docking_score>
-7.2880042611821

> <r_i_glide_ligand_efficiency>
-0.186871904132874

> <r_i_glide_ligand_efficiency_sa>
-0.633722138899356

> <r_i_glide_ligand_efficiency_ln>
-1.56275499590115

> <r_i_glide_gscore>
-7.2880042611821

> <r_i_glide_lipo>
-3.13835181541335

> <r_i_glide_hbond>
-0.360047813168076

> <r_i_glide_metal>
0

> <r_i_glide_rewards>
-1.18163553146728

> <r_i_glide_evdw>
-49.1081657409668

> <r_i_glide_ecoul>
-5.62512016296387

> <r_i_glide_erotb>
0.800090503894001

> <r_i_glide_esite>
-0.108883293534467

> <r_i_glide_emodel>
-63.5367686583208

> <r_i_glide_energy>
-54.7332859039307

> <r_i_glide_einternal>
12.8493232727051

> <i_i_glide_confnum>
3

> <i_i_glide_posenum>
28

> <r_i_glide_eff_state_penalty>
0

> <s_user_duplicate_titles>
207492

> <s_m_subgroup_title>
dock_pv

> <s_m_subgroupid>
dock_pv1

> <b_m_subgroup_collapsed>
0

$$$$
183585
                    3D
 Schrodinger Suite 2021-1.
 69 71  0  0  1  0            999 V2000
   15.3903    3.9829   38.1258 C   0  0  0  0  0  0
   14.6407    5.2910   38.0275 C   0  0  0  0  0  0
   14.2212    5.8804   39.0834 N   0  0  0  0  0  0
   13.4902    7.0753   38.9606 C   0  0  0  0  0  0
   13.0413    7.6939   40.1229 C   0  0  0  0  0  0
   12.3656    8.9135   40.0422 C   0  0  0  0  0  0
   12.1164    9.5079   38.7973 C   0  0  0  0  0  0
   12.5111    8.8545   37.6210 C   0  0  0  0  0  0
   13.2279    7.6581   37.7151 C   0  0  0  0  0  0
   13.8083    6.9901   36.4881 C   0  0  0  0  0  0
   14.4363    5.8281   36.7912 N   0  0  0  0  0  0
   13.7910    7.4268   35.3396 O   0  0  0  0  0  0
   11.4965   10.9001   38.7250 C   0  0  0  0  0  0
   12.3912   11.9403   39.2752 N   0  0  0  0  0  0
   11.7531   12.9388   40.1465 C   0  0  0  0  0  0
   12.6302   13.3636   41.2572 C   0  0  0  0  0  0
   13.3758   13.6417   42.1840 C   0  0  0  0  0  0
   13.4469   12.3493   38.4075 C   0  0  0  0  0  0
   13.5818   13.6685   37.9461 C   0  0  0  0  0  0
   14.5954   14.0155   37.0514 C   0  0  0  0  0  0
   15.5049   13.0478   36.6053 C   0  0  0  0  0  0
   15.3921   11.7440   37.0896 C   0  0  0  0  0  0
   14.3960   11.4110   37.9910 C   0  0  0  0  0  0
   16.5688   13.3404   35.5777 C   0  0  0  0  0  0
   16.9925   12.4180   34.8828 O   0  0  0  0  0  0
   16.9839   14.6164   35.4524 N   0  0  0  0  0  0
   17.8394   15.1699   34.3792 C   0  0  2  0  0  0
   17.0262   15.4109   33.0746 C   0  0  0  0  0  0
   15.7655   16.3005   33.2647 C   0  0  0  0  0  0
   15.1287   16.7776   31.9501 C   0  0  0  0  0  0
   15.5666   16.3988   30.8650 O   0  0  0  0  0  0
   14.0980   17.6348   32.0619 N   0  0  0  0  0  0
   13.3593   18.2431   30.9445 C   0  0  2  0  0  0
   12.5854   19.4605   31.5002 C   0  0  0  0  0  0
   12.4938   17.2346   30.1346 C   0  0  0  0  0  0
   12.7634   16.0591   29.9912 O   0  0  0  0  0  0
   11.3920   17.8280   29.5910 O   0  0  0  0  0  0
   19.1574   14.3905   34.1303 C   0  0  0  0  0  0
   20.1934   14.6280   34.7084 O   0  0  0  0  0  0
   18.9936   13.4279   33.1869 O   0  0  0  0  0  0
   18.1885   16.1451   34.7179 H   0  0  0  0  0  0
   14.1048   18.6236   30.2424 H   0  0  0  0  0  0
   16.2689    4.0896   38.7599 H   0  0  0  0  0  0
   14.7499    3.2167   38.5615 H   0  0  0  0  0  0
   15.7240    3.6241   37.1504 H   0  0  0  0  0  0
   13.2471    7.2400   41.0804 H   0  0  0  0  0  0
   12.0652    9.4162   40.9494 H   0  0  0  0  0  0
   12.3329    9.3103   36.6553 H   0  0  0  0  0  0
   14.7160    5.2844   35.9908 H   0  0  0  0  0  0
   11.2597   11.1390   37.6844 H   0  0  0  0  0  0
   10.5372   10.8763   39.2450 H   0  0  0  0  0  0
   11.4099   13.8133   39.5953 H   0  0  0  0  0  0
   10.8635   12.5189   40.6151 H   0  0  0  0  0  0
   14.0457   13.8293   42.9937 H   0  0  0  0  0  0
   12.8895   14.4403   38.2385 H   0  0  0  0  0  0
   14.6466   15.0342   36.6950 H   0  0  0  0  0  0
   16.0901   10.9774   36.7827 H   0  0  0  0  0  0
   14.4074   10.4099   38.3828 H   0  0  0  0  0  0
   16.6686   15.2773   36.1465 H   0  0  0  0  0  0
   17.6830   15.8393   32.3145 H   0  0  0  0  0  0
   16.6948   14.4474   32.6762 H   0  0  0  0  0  0
   15.0031   15.7342   33.8024 H   0  0  0  0  0  0
   16.0229   17.1853   33.8499 H   0  0  0  0  0  0
   13.7887   17.9082   32.9810 H   0  0  0  0  0  0
   12.1637   20.0742   30.7034 H   0  0  0  0  0  0
   11.7724   19.1560   32.1580 H   0  0  0  0  0  0
   13.2430   20.1162   32.0740 H   0  0  0  0  0  0
   11.2167   18.7363   29.8589 H   0  0  0  0  0  0
   19.8035   12.9285   33.0023 H   0  0  0  0  0  0
  1 43  1  0  0  0
  1 44  1  0  0  0
  1 45  1  0  0  0
  1  2  1  0  0  0
  2  3  2  0  0  0
  2 11  1  0  0  0
  3  4  1  0  0  0
  4  9  2  0  0  0
  4  5  1  0  0  0
  5  6  2  0  0  0
  5 46  1  0  0  0
  6  7  1  0  0  0
  6 47  1  0  0  0
  7  8  2  0  0  0
  7 13  1  0  0  0
  8  9  1  0  0  0
  8 48  1  0  0  0
  9 10  1  0  0  0
 10 12  2  0  0  0
 10 11  1  0  0  0
 11 49  1  0  0  0
 13 14  1  0  0  0
 13 50  1  0  0  0
 13 51  1  0  0  0
 14 15  1  0  0  0
 14 18  1  0  0  0
 15 16  1  0  0  0
 15 52  1  0  0  0
 15 53  1  0  0  0
 16 17  3  0  0  0
 17 54  1  0  0  0
 18 23  1  0  0  0
 18 19  2  0  0  0
 19 20  1  0  0  0
 19 55  1  0  0  0
 20 21  2  0  0  0
 20 56  1  0  0  0
 21 22  1  0  0  0
 21 24  1  0  0  0
 22 23  2  0  0  0
 22 57  1  0  0  0
 23 58  1  0  0  0
 24 25  2  0  0  0
 24 26  1  0  0  0
 26 27  1  0  0  0
 26 59  1  0  0  0
 27 41  1  0  0  0
 27 28  1  0  0  0
 27 38  1  0  0  0
 28 29  1  0  0  0
 28 60  1  0  0  0
 28 61  1  0  0  0
 29 30  1  0  0  0
 29 62  1  0  0  0
 29 63  1  0  0  0
 30 31  2  0  0  0
 30 32  1  0  0  0
 32 33  1  0  0  0
 32 64  1  0  0  0
 33 42  1  0  0  0
 33 34  1  0  0  0
 33 35  1  0  0  0
 34 65  1  0  0  0
 34 66  1  0  0  0
 34 67  1  0  0  0
 35 36  2  0  0  0
 35 37  1  0  0  0
 37 68  1  0  0  0
 38 39  2  0  0  0
 38 40  1  0  0  0
 40 69  1  0  0  0
M  END
> <s_m_entry_id>
41899

> <s_m_entry_name>
ligand_docking-pose.259

> <s_m_Source_Path>
/home/csk/Desktop/cluster/DUD-E-result/tysy

> <s_m_Source_File>
ligand_docking-pose.sdf

> <i_m_Source_File_Index>
259

> <i_lp_mmshare_version>
53161

> <i_f3d_flags>
0

> <r_lp_tautomer_probability>
0.883938

> <s_lp_Force_Field>
OPLS_2005

> <r_lp_Energy>
20.195035

> <b_lp_Chiralities_Consistent>
1

> <s_lp_Variant>
183585-1

> <s_i_glide_gridfile>
glide-grid_1syn

> <i_i_glide_lignum>
590

> <i_i_glide_rotatable_bonds>
17

> <r_i_docking_score>
-7.25520943572062

> <r_i_glide_ligand_efficiency>
-0.181380235893016

> <r_i_glide_ligand_efficiency_sa>
-0.620311680396452

> <r_i_glide_ligand_efficiency_ln>
-1.54732266135676

> <r_i_glide_gscore>
-7.25520943572062

> <r_i_glide_lipo>
-2.05309169457982

> <r_i_glide_hbond>
-0.485145561174488

> <r_i_glide_metal>
0

> <r_i_glide_rewards>
-0.588231077612123

> <r_i_glide_evdw>
-58.7683601379395

> <r_i_glide_ecoul>
-14.2664451599121

> <r_i_glide_erotb>
1.03644639142796

> <r_i_glide_esite>
-0.0868027128983663

> <r_i_glide_emodel>
-99.4792972749988

> <r_i_glide_energy>
-73.0348052978516

> <r_i_glide_einternal>
8.16637802124023

> <i_i_glide_confnum>
19

> <i_i_glide_posenum>
294

> <r_i_glide_eff_state_penalty>
0

> <s_user_duplicate_titles>
183585

> <s_m_subgroup_title>
dock_pv

> <s_m_subgroupid>
dock_pv1

> <b_m_subgroup_collapsed>
0

$$$$
2080
                    3D
 Schrodinger Suite 2021-1.
 30 31  0  0  1  0            999 V2000
   15.1989   15.3114   28.5843 C   0  0  0  0  0  0
   14.4846   15.2229   29.9407 C   0  0  0  0  0  0
   14.1420   16.5710   30.5749 C   0  0  0  0  0  0
   14.5199   16.9474   31.8869 C   0  0  0  0  0  0
   13.9452   18.1500   32.3479 C   0  0  0  0  0  0
   13.1333   18.9254   31.5914 N   0  0  0  0  0  0
   12.9172   18.5064   30.3271 C   0  0  0  0  0  0
   13.3637   17.3559   29.7850 N   0  0  0  0  0  0
   12.1920   19.3423   29.4986 N   0  0  0  0  0  0
   14.1918   18.6280   33.6290 N   0  0  0  0  0  0
   15.4609   16.1410   32.7287 C   0  0  0  0  0  0
   15.1321   15.7785   34.0417 C   0  0  0  0  0  0
   15.9921   14.9828   34.7941 C   0  0  0  0  0  0
   17.1823   14.5308   34.2289 C   0  0  0  0  0  0
   17.5494   14.9232   32.9470 C   0  0  0  0  0  0
   16.6950   15.7347   32.2101 C   0  0  0  0  0  0
   18.1818   13.4248   35.0907 Cl  0  0  0  0  0  0
   15.3920   14.3120   28.1958 H   0  0  0  0  0  0
   14.5920   15.8312   27.8434 H   0  0  0  0  0  0
   16.1550   15.8283   28.6694 H   0  0  0  0  0  0
   15.0966   14.6280   30.6052 H   0  0  0  0  0  0
   13.5570   14.6597   29.8267 H   0  0  0  0  0  0
   11.8985   18.9616   28.6134 H   0  0  0  0  0  0
   11.5816   20.0024   29.9607 H   0  0  0  0  0  0
   14.8084   18.1150   34.2378 H   0  0  0  0  0  0
   13.7228   19.4782   33.9375 H   0  0  0  0  0  0
   14.1847   16.0740   34.4691 H   0  0  0  0  0  0
   15.7148   14.6800   35.7936 H   0  0  0  0  0  0
   18.4778   14.5775   32.5135 H   0  0  0  0  0  0
   16.9818   16.0176   31.2084 H   0  0  0  0  0  0
  1  2  1  0  0  0
  1 18  1  0  0  0
  1 19  1  0  0  0
  1 20  1  0  0  0
  2  3  1  0  0  0
  2 21  1  0  0  0
  2 22  1  0  0  0
  3  8  1  0  0  0
  3  4  2  0  0  0
  4  5  1  0  0  0
  4 11  1  0  0  0
  5  6  2  0  0  0
  5 10  1  0  0  0
  6  7  1  0  0  0
  7  8  2  0  0  0
  7  9  1  0  0  0
  9 23  1  0  0  0
  9 24  1  0  0  0
 10 25  1  0  0  0
 10 26  1  0  0  0
 11 16  1  0  0  0
 11 12  2  0  0  0
 12 13  1  0  0  0
 12 27  1  0  0  0
 13 14  2  0  0  0
 13 28  1  0  0  0
 14 15  1  0  0  0
 14 17  1  0  0  0
 15 16  2  0  0  0
 15 29  1  0  0  0
 16 30  1  0  0  0
M  END
> <s_m_entry_id>
41901

> <s_m_entry_name>
ligand_docking-pose.261

> <s_m_Source_Path>
/home/csk/Desktop/cluster/DUD-E-result/tysy

> <s_m_Source_File>
ligand_docking-pose.sdf

> <i_m_Source_File_Index>
261

> <i_lp_mmshare_version>
53161

> <i_f3d_flags>
0

> <r_lp_tautomer_probability>
0.999999624730965

> <s_lp_Force_Field>
OPLS_2005

> <r_lp_Energy>
3.870202

> <b_lp_Chiralities_Consistent>
1

> <s_lp_Variant>
2080-1

> <s_i_glide_gridfile>
glide-grid_1syn

> <i_i_glide_lignum>
726

> <i_i_glide_rotatable_bonds>
2

> <r_i_docking_score>
-7.2367310395568

> <r_i_glide_ligand_efficiency>
-0.4256900611504

> <r_i_glide_ligand_efficiency_sa>
-1.09456901652849

> <r_i_glide_ligand_efficiency_ln>
-1.88790197414346

> <r_i_glide_gscore>
-7.2367310395568

> <r_i_glide_lipo>
-2.95321267827629

> <r_i_glide_hbond>
-0.269977384139691

> <r_i_glide_metal>
0

> <r_i_glide_rewards>
-2.02866252170832

> <r_i_glide_evdw>
-32.5733642578125

> <r_i_glide_ecoul>
-3.73458504676819

> <r_i_glide_erotb>
0.282491304660606

> <r_i_glide_esite>
-0.0785137901872487

> <r_i_glide_emodel>
-52.0143138940067

> <r_i_glide_energy>
-36.3079493045807

> <r_i_glide_einternal>
0.675175428390503

> <i_i_glide_confnum>
4

> <i_i_glide_posenum>
336

> <r_i_glide_eff_state_penalty>
0

> <s_user_duplicate_titles>
2080

> <s_m_subgroup_title>
dock_pv

> <s_m_subgroupid>
dock_pv1

> <b_m_subgroup_collapsed>
0

$$$$
151912
                    3D
 Schrodinger Suite 2021-1.
 58 60  0  0  1  0            999 V2000
   19.7915   14.2283   33.5887 C   0  0  0  0  0  0
   18.7656   13.6787   33.9488 C   0  0  0  0  0  0
   17.5606   12.9202   34.3138 C   0  0  0  0  0  0
   16.6062   13.5459   35.2554 N   0  0  0  0  0  0
   16.5301   15.0168   35.3899 C   0  0  0  0  0  0
   15.6349   15.7067   34.3546 C   0  0  0  0  0  0
   14.5977   16.5312   34.7924 C   0  0  0  0  0  0
   13.8188   17.2554   33.8951 C   0  0  0  0  0  0
   14.0549   17.1512   32.5060 C   0  0  0  0  0  0
   15.1038   16.3045   32.0326 C   0  0  0  0  0  0
   15.8941   15.6009   32.9834 C   0  0  0  0  0  0
   15.2938   16.2212   30.6212 C   0  0  0  0  0  0
   14.4572   16.9511   29.7763 C   0  0  0  0  0  0
   13.4627   17.7508   30.3302 C   0  0  0  0  0  0
   13.2624   17.8653   31.6611 N   0  0  0  0  0  0
   12.6052   18.4710   29.5069 N   0  0  0  0  0  0
   16.5342   15.2364   29.9242 Cl  0  0  0  0  0  0
   15.7516   12.6843   36.0108 C   0  0  0  0  0  0
   15.7643   11.2919   35.8046 C   0  0  0  0  0  0
   15.0406   10.4247   36.6116 C   0  0  0  0  0  0
   14.2747   10.9217   37.6684 C   0  0  0  0  0  0
   14.1913   12.3051   37.8491 C   0  0  0  0  0  0
   14.9022   13.1718   37.0195 C   0  0  0  0  0  0
   13.6154    9.9817   38.6444 C   0  0  0  0  0  0
   13.5995   10.2425   39.8488 O   0  0  0  0  0  0
   13.1070    8.8542   38.1086 N   0  0  0  0  0  0
   12.5275    7.6919   38.8068 C   0  0  1  0  0  0
   13.6349    6.9494   39.6183 C   0  0  0  0  0  0
   14.8567    6.4689   38.7961 C   0  0  0  0  0  0
   14.5930    5.1885   38.0010 C   0  0  0  0  0  0
   14.8859    4.0678   38.4094 O   0  0  0  0  0  0
   14.0102    5.4281   36.7923 O   0  0  0  0  0  0
   11.2704    8.0039   39.6624 C   0  0  0  0  0  0
   10.8365    9.1139   39.8917 O   0  0  0  0  0  0
   10.7040    6.8363   40.0881 O   0  0  0  0  0  0
   12.1786    7.0317   38.0120 H   0  0  0  0  0  0
   20.7035   14.6278   33.2095 H   0  0  0  0  0  0
   18.0022   12.0289   34.7591 H   0  0  0  0  0  0
   17.0539   12.6287   33.3968 H   0  0  0  0  0  0
   17.5310   15.4282   35.2889 H   0  0  0  0  0  0
   16.2474   15.3268   36.3901 H   0  0  0  0  0  0
   14.4092   16.6360   35.8505 H   0  0  0  0  0  0
   13.0331   17.9072   34.2524 H   0  0  0  0  0  0
   16.7033   14.9809   32.6315 H   0  0  0  0  0  0
   14.5815   16.8918   28.7052 H   0  0  0  0  0  0
   12.7108   18.4341   28.5050 H   0  0  0  0  0  0
   11.8763   19.0289   29.9326 H   0  0  0  0  0  0
   16.3515   10.8335   35.0271 H   0  0  0  0  0  0
   15.1293    9.3626   36.4319 H   0  0  0  0  0  0
   13.5969   12.7187   38.6513 H   0  0  0  0  0  0
   14.8065   14.2241   37.2269 H   0  0  0  0  0  0
   13.1029    8.7875   37.1022 H   0  0  0  0  0  0
   14.0009    7.6027   40.4125 H   0  0  0  0  0  0
   13.2164    6.0844   40.1358 H   0  0  0  0  0  0
   15.2335    7.2477   38.1336 H   0  0  0  0  0  0
   15.6720    6.2485   39.4864 H   0  0  0  0  0  0
   13.8659    4.6043   36.2884 H   0  0  0  0  0  0
   11.1603    6.0575   39.7665 H   0  0  0  0  0  0
  1  2  3  0  0  0
  1 37  1  0  0  0
  2  3  1  0  0  0
  3  4  1  0  0  0
  3 38  1  0  0  0
  3 39  1  0  0  0
  4  5  1  0  0  0
  4 18  1  0  0  0
  5  6  1  0  0  0
  5 40  1  0  0  0
  5 41  1  0  0  0
  6 11  1  0  0  0
  6  7  2  0  0  0
  7  8  1  0  0  0
  7 42  1  0  0  0
  8  9  2  0  0  0
  8 43  1  0  0  0
  9 15  1  0  0  0
  9 10  1  0  0  0
 10 11  2  0  0  0
 10 12  1  0  0  0
 11 44  1  0  0  0
 12 13  2  0  0  0
 12 17  1  0  0  0
 13 14  1  0  0  0
 13 45  1  0  0  0
 14 15  2  0  0  0
 14 16  1  0  0  0
 16 46  1  0  0  0
 16 47  1  0  0  0
 18 23  1  0  0  0
 18 19  2  0  0  0
 19 20  1  0  0  0
 19 48  1  0  0  0
 20 21  2  0  0  0
 20 49  1  0  0  0
 21 22  1  0  0  0
 21 24  1  0  0  0
 22 23  2  0  0  0
 22 50  1  0  0  0
 23 51  1  0  0  0
 24 25  2  0  0  0
 24 26  1  0  0  0
 26 27  1  0  0  0
 26 52  1  0  0  0
 27 36  1  0  0  0
 27 28  1  0  0  0
 27 33  1  0  0  0
 28 29  1  0  0  0
 28 53  1  0  0  0
 28 54  1  0  0  0
 29 30  1  0  0  0
 29 55  1  0  0  0
 29 56  1  0  0  0
 30 31  2  0  0  0
 30 32  1  0  0  0
 32 57  1  0  0  0
 33 34  2  0  0  0
 33 35  1  0  0  0
 35 58  1  0  0  0
M  END
> <s_m_entry_id>
41902

> <s_m_entry_name>
ligand_docking-pose.262

> <s_m_Source_Path>
/home/csk/Desktop/cluster/DUD-E-result/tysy

> <s_m_Source_File>
ligand_docking-pose.sdf

> <i_m_Source_File_Index>
262

> <i_lp_mmshare_version>
53161

> <i_f3d_flags>
0

> <r_lp_tautomer_probability>
1

> <s_lp_Force_Field>
OPLS_2005

> <r_lp_Energy>
17.312025

> <b_lp_Chiralities_Consistent>
1

> <s_lp_Variant>
151912-1

> <s_i_glide_gridfile>
glide-grid_1syn

> <i_i_glide_lignum>
762

> <i_i_glide_rotatable_bonds>
14

> <r_i_docking_score>
-7.22633055613857

> <r_i_glide_ligand_efficiency>
-0.206466587318245

> <r_i_glide_ligand_efficiency_sa>
-0.675365897155934

> <r_i_glide_ligand_efficiency_ln>
-1.58633993683808

> <r_i_glide_gscore>
-7.22633055613857

> <r_i_glide_lipo>
-3.81369412127998

> <r_i_glide_hbond>
0

> <r_i_glide_metal>
0

> <r_i_glide_rewards>
-0.481240967838946

> <r_i_glide_evdw>
-49.6864128112793

> <r_i_glide_ecoul>
-9.45167636871338

> <r_i_glide_erotb>
0.998488610257922

> <r_i_glide_esite>
-0.0278119814065849

> <r_i_glide_emodel>
-82.6542826030035

> <r_i_glide_energy>
-59.1380891799927

> <r_i_glide_einternal>
4.93294715881348

> <i_i_glide_confnum>
91

> <i_i_glide_posenum>
81

> <r_i_glide_eff_state_penalty>
0

> <s_user_duplicate_titles>
151912

> <s_m_subgroup_title>
dock_pv

> <s_m_subgroupid>
dock_pv1

> <b_m_subgroup_collapsed>
0

$$$$
207358
                    3D
 Schrodinger Suite 2021-1.
 68 71  0  0  1  0            999 V2000
   10.2985    9.4672   35.8875 C   0  0  0  0  0  0
   11.3967    9.0956   36.8719 C   0  0  0  0  0  0
   11.9162    7.7995   36.8244 C   0  0  0  0  0  0
   12.9435    7.4319   37.6802 C   0  0  0  0  0  0
   13.4242    8.3264   38.6409 C   0  0  0  0  0  0
   12.8883    9.6185   38.7161 C   0  0  0  0  0  0
   11.9133   10.0284   37.7954 C   0  0  0  0  0  0
   11.5188   11.5104   37.7123 C   0  0  0  0  0  0
   12.5955   12.4988   37.9540 N   0  0  0  0  0  0
   12.2576   13.5945   38.8765 C   0  0  0  0  0  0
   12.8705   13.4298   40.2092 C   0  0  0  0  0  0
   13.3918   13.2882   41.3051 C   0  0  0  0  0  0
   13.7999   12.5481   37.1799 C   0  0  0  0  0  0
   14.5970   13.7077   37.1291 C   0  0  0  0  0  0
   15.7787   13.7525   36.3913 C   0  0  0  0  0  0
   16.2470   12.6059   35.7459 C   0  0  0  0  0  0
   15.4871   11.4393   35.7961 C   0  0  0  0  0  0
   14.2623   11.4404   36.4474 C   0  0  0  0  0  0
   15.8993   10.2974   35.1938 F   0  0  0  0  0  0
   17.5120   12.6398   34.9511 C   0  0  0  0  0  0
   18.4331   11.8579   35.1860 O   0  0  0  0  0  0
   17.5146   13.5565   33.9709 N   0  0  0  0  0  0
   18.6409   13.8133   33.0755 C   0  0  1  0  0  0
   18.2350   14.5733   31.7815 C   0  0  0  0  0  0
   16.9867   14.0268   31.0500 C   0  0  0  0  0  0
   16.4285   14.9760   29.9654 C   0  0  0  0  0  0
   14.7341   15.6268   30.1650 S   0  0  0  0  0  0
   14.8683   16.6120   31.6264 C   0  0  0  0  0  0
   14.0882   17.7095   31.8908 N   0  0  0  0  0  0
   14.3805   18.2272   33.0854 N   0  0  0  0  0  0
   15.3840   17.4129   33.5697 N   0  0  0  0  0  0
   15.6657   16.4082   32.6490 N   0  0  0  0  0  0
   19.6903   14.6278   33.8501 C   0  0  0  0  0  0
   19.3915   15.5333   34.6009 O   0  0  0  0  0  0
   20.9573   14.2281   33.5523 O   0  0  0  0  0  0
   14.5714    7.9053   39.5465 C   0  0  0  0  0  0
   15.0781    6.6155   39.3224 N   0  0  0  0  0  0
   14.5973    5.8488   38.4192 C   0  0  0  0  0  0
   13.5486    6.1767   37.5854 N   0  0  0  0  0  0
   15.2145    4.4844   38.2156 C   0  0  0  0  0  0
   14.9921    8.6939   40.3908 O   0  0  0  0  0  0
   19.0400   12.8404   32.7928 H   0  0  0  0  0  0
   13.3828   18.0987   31.2821 H   0  0  0  0  0  0
   10.7064   10.0538   35.0633 H   0  0  0  0  0  0
    9.8018    8.5846   35.4795 H   0  0  0  0  0  0
    9.5212   10.0494   36.3834 H   0  0  0  0  0  0
   11.5531    7.0929   36.0931 H   0  0  0  0  0  0
   13.2852   10.3414   39.4188 H   0  0  0  0  0  0
   11.1115   11.7404   36.7296 H   0  0  0  0  0  0
   10.6916   11.6569   38.4087 H   0  0  0  0  0  0
   12.5095   14.5761   38.4741 H   0  0  0  0  0  0
   11.1795   13.6438   39.0332 H   0  0  0  0  0  0
   13.8706   13.1512   42.2503 H   0  0  0  0  0  0
   14.3332   14.6154   37.6470 H   0  0  0  0  0  0
   16.3460   14.6738   36.3651 H   0  0  0  0  0  0
   13.7223   10.5197   36.3642 H   0  0  0  0  0  0
   16.7224   14.1715   33.8755 H   0  0  0  0  0  0
   18.0656   15.6256   32.0139 H   0  0  0  0  0  0
   19.0775   14.5619   31.0869 H   0  0  0  0  0  0
   17.2295   13.0600   30.6073 H   0  0  0  0  0  0
   16.1924   13.8285   31.7594 H   0  0  0  0  0  0
   17.0877   15.8251   29.8062 H   0  0  0  0  0  0
   16.4245   14.4412   29.0152 H   0  0  0  0  0  0
   21.0058   13.3244   33.1856 H   0  0  0  0  0  0
   16.0325    4.2981   38.9135 H   0  0  0  0  0  0
   14.4714    3.6969   38.3529 H   0  0  0  0  0  0
   15.6142    4.3893   37.2061 H   0  0  0  0  0  0
   13.2376    5.5247   36.8825 H   0  0  0  0  0  0
  1 44  1  0  0  0
  1 45  1  0  0  0
  1 46  1  0  0  0
  1  2  1  0  0  0
  2  7  1  0  0  0
  2  3  2  0  0  0
  3 47  1  0  0  0
  3  4  1  0  0  0
  4  5  2  0  0  0
  4 39  1  0  0  0
  5 36  1  0  0  0
  5  6  1  0  0  0
  6 48  1  0  0  0
  6  7  2  0  0  0
  7  8  1  0  0  0
  8  9  1  0  0  0
  8 49  1  0  0  0
  8 50  1  0  0  0
  9 10  1  0  0  0
  9 13  1  0  0  0
 10 11  1  0  0  0
 10 51  1  0  0  0
 10 52  1  0  0  0
 11 12  3  0  0  0
 12 53  1  0  0  0
 13 18  1  0  0  0
 13 14  2  0  0  0
 14 15  1  0  0  0
 14 54  1  0  0  0
 15 16  2  0  0  0
 15 55  1  0  0  0
 16 17  1  0  0  0
 16 20  1  0  0  0
 17 18  2  0  0  0
 17 19  1  0  0  0
 18 56  1  0  0  0
 20 21  2  0  0  0
 20 22  1  0  0  0
 22 23  1  0  0  0
 22 57  1  0  0  0
 23 42  1  0  0  0
 23 24  1  0  0  0
 23 33  1  0  0  0
 24 25  1  0  0  0
 24 58  1  0  0  0
 24 59  1  0  0  0
 25 26  1  0  0  0
 25 60  1  0  0  0
 25 61  1  0  0  0
 26 27  1  0  0  0
 26 62  1  0  0  0
 26 63  1  0  0  0
 27 28  1  0  0  0
 28 29  1  0  0  0
 28 32  2  0  0  0
 29 43  1  0  0  0
 29 30  1  0  0  0
 30 31  2  0  0  0
 31 32  1  0  0  0
 33 34  2  0  0  0
 33 35  1  0  0  0
 35 64  1  0  0  0
 36 41  2  0  0  0
 36 37  1  0  0  0
 37 38  2  0  0  0
 38 39  1  0  0  0
 38 40  1  0  0  0
 39 68  1  0  0  0
 40 65  1  0  0  0
 40 66  1  0  0  0
 40 67  1  0  0  0
M  END
> <s_m_entry_id>
41903

> <s_m_entry_name>
ligand_docking-pose.263

> <s_m_Source_Path>
/home/csk/Desktop/cluster/DUD-E-result/tysy

> <s_m_Source_File>
ligand_docking-pose.sdf

> <i_m_Source_File_Index>
263

> <i_lp_mmshare_version>
53161

> <i_f3d_flags>
0

> <r_lp_tautomer_probability>
0.0348153

> <s_lp_Force_Field>
OPLS_2005

> <r_lp_Energy>
24.967485

> <b_lp_Chiralities_Consistent>
1

> <s_lp_Variant>
207358-3

> <s_i_glide_gridfile>
glide-grid_1syn

> <i_i_glide_lignum>
287

> <i_i_glide_rotatable_bonds>
15

> <r_i_docking_score>
-7.22478389333886

> <r_i_glide_ligand_efficiency>
-0.176214241300948

> <r_i_glide_ligand_efficiency_sa>
-0.607624984102737

> <r_i_glide_ligand_efficiency_ln>
-1.53276194595034

> <r_i_glide_gscore>
-7.22478389333886

> <r_i_glide_lipo>
-2.05290708269595

> <r_i_glide_hbond>
0

> <r_i_glide_metal>
0

> <r_i_glide_rewards>
-0.908632248032182

> <r_i_glide_evdw>
-60.650016784668

> <r_i_glide_ecoul>
-12.5357685089111

> <r_i_glide_erotb>
0.713022806360405

> <r_i_glide_esite>
-0.0634012534010563

> <r_i_glide_emodel>
-100.937807085733

> <r_i_glide_energy>
-73.1857852935791

> <r_i_glide_einternal>
12.7992076873779

> <i_i_glide_confnum>
4

> <i_i_glide_posenum>
179

> <r_i_glide_eff_state_penalty>
0

> <s_user_duplicate_titles>
207358

> <s_m_subgroup_title>
dock_pv

> <s_m_subgroupid>
dock_pv1

> <b_m_subgroup_collapsed>
0

$$$$
183887
                    3D
 Schrodinger Suite 2021-1.
 72 74  0  0  1  0            999 V2000
    7.7646    8.0628   31.4999 C   0  0  0  0  0  0
    8.3429    9.0240   32.5119 C   0  0  0  0  0  0
    8.3819    8.7310   33.7612 N   0  0  0  0  0  0
    8.9917    9.6250   34.6593 C   0  0  0  0  0  0
    9.0385    9.2824   36.0076 C   0  0  0  0  0  0
    9.6331   10.1497   36.9273 C   0  0  0  0  0  0
   10.2072   11.3600   36.5076 C   0  0  0  0  0  0
   10.1549   11.7041   35.1506 C   0  0  0  0  0  0
    9.5406   10.8396   34.2378 C   0  0  0  0  0  0
    9.4225   11.1878   32.7719 C   0  0  0  0  0  0
    8.8372   10.2081   32.0467 N   0  0  0  0  0  0
    9.7919   12.2288   32.2441 O   0  0  0  0  0  0
   10.8102   12.3378   37.5215 C   0  0  0  0  0  0
   12.1138   11.8948   38.0523 N   0  0  0  0  0  0
   12.0913   10.8362   39.0752 C   0  0  0  0  0  0
   12.8132   11.1862   40.3151 C   0  0  0  0  0  0
   13.3919   11.4635   41.3553 C   0  0  0  0  0  0
   13.3201   12.2460   37.3754 C   0  0  0  0  0  0
   13.4577   13.4886   36.7404 C   0  0  0  0  0  0
   14.6289   13.8308   36.0648 C   0  0  0  0  0  0
   15.7032   12.9288   35.9881 C   0  0  0  0  0  0
   15.5847   11.7034   36.6548 C   0  0  0  0  0  0
   14.4184   11.3733   37.3424 C   0  0  0  0  0  0
   16.9527   13.2222   35.1710 C   0  0  0  0  0  0
   17.9230   12.4661   35.2068 O   0  0  0  0  0  0
   16.8874   14.2943   34.3536 N   0  0  0  0  0  0
   17.8894   14.7846   33.3960 C   0  0  2  0  0  0
   18.1861   13.8779   32.1804 C   0  0  0  0  0  0
   17.0213   13.7192   31.1714 C   0  0  0  0  0  0
   16.3136   14.9938   30.6540 C   0  0  0  0  0  0
   16.5918   15.4283   29.5402 O   0  0  0  0  0  0
   15.3896   15.5844   31.4388 N   0  0  0  0  0  0
   14.6073   16.7740   31.0428 C   0  0  2  0  0  0
   14.0043   17.5701   32.2441 C   0  0  0  0  0  0
   14.9100   17.8295   33.4523 C   0  0  0  0  0  0
   16.0409   17.3889   33.5904 O   0  0  0  0  0  0
   14.3398   18.6280   34.3914 O   0  0  0  0  0  0
   13.4635   16.4072   30.0704 C   0  0  0  0  0  0
   12.9658   15.3040   29.9894 O   0  0  0  0  0  0
   13.0885   17.5020   29.3468 O   0  0  0  0  0  0
   19.1383   15.2574   34.1253 C   0  0  0  0  0  0
   20.1003   14.5716   34.3911 O   0  0  0  0  0  0
   18.9920   16.5824   34.3911 O   0  0  0  0  0  0
   17.4874   15.6793   32.9426 H   0  0  0  0  0  0
   15.2676   17.4413   30.4878 H   0  0  0  0  0  0
    8.5418    7.7041   30.8218 H   0  0  0  0  0  0
    7.3174    7.1905   31.9802 H   0  0  0  0  0  0
    6.9912    8.5451   30.9001 H   0  0  0  0  0  0
    8.6054    8.3499   36.3350 H   0  0  0  0  0  0
    9.6323    9.8733   37.9693 H   0  0  0  0  0  0
   10.5910   12.6327   34.8115 H   0  0  0  0  0  0
    8.7889   10.4031   31.0600 H   0  0  0  0  0  0
   10.8586   13.3249   37.0660 H   0  0  0  0  0  0
   10.1073   12.4513   38.3485 H   0  0  0  0  0  0
   11.0697   10.6289   39.3902 H   0  0  0  0  0  0
   12.4788    9.8966   38.6806 H   0  0  0  0  0  0
   13.9227   11.7045   42.2505 H   0  0  0  0  0  0
   12.6701   14.2241   36.7720 H   0  0  0  0  0  0
   14.6699   14.8027   35.5943 H   0  0  0  0  0  0
   16.3935   10.9858   36.6301 H   0  0  0  0  0  0
   14.3790   10.4104   37.8246 H   0  0  0  0  0  0
   16.0952   14.9058   34.4592 H   0  0  0  0  0  0
   19.0557   14.2457   31.6295 H   0  0  0  0  0  0
   18.4908   12.8884   32.5284 H   0  0  0  0  0  0
   17.3934   13.1679   30.3144 H   0  0  0  0  0  0
   16.3100   13.0305   31.5894 H   0  0  0  0  0  0
   15.1679   15.1778   32.3335 H   0  0  0  0  0  0
   13.7055   18.5578   31.8871 H   0  0  0  0  0  0
   13.1013   17.0762   32.6078 H   0  0  0  0  0  0
   13.5109   19.0752   34.1814 H   0  0  0  0  0  0
   13.5740   18.2994   29.5673 H   0  0  0  0  0  0
   19.7222   16.8954   34.9348 H   0  0  0  0  0  0
  1 46  1  0  0  0
  1 47  1  0  0  0
  1 48  1  0  0  0
  1  2  1  0  0  0
  2  3  2  0  0  0
  2 11  1  0  0  0
  3  4  1  0  0  0
  4  9  2  0  0  0
  4  5  1  0  0  0
  5  6  2  0  0  0
  5 49  1  0  0  0
  6  7  1  0  0  0
  6 50  1  0  0  0
  7  8  2  0  0  0
  7 13  1  0  0  0
  8  9  1  0  0  0
  8 51  1  0  0  0
  9 10  1  0  0  0
 10 12  2  0  0  0
 10 11  1  0  0  0
 11 52  1  0  0  0
 13 14  1  0  0  0
 13 53  1  0  0  0
 13 54  1  0  0  0
 14 15  1  0  0  0
 14 18  1  0  0  0
 15 16  1  0  0  0
 15 55  1  0  0  0
 15 56  1  0  0  0
 16 17  3  0  0  0
 17 57  1  0  0  0
 18 23  1  0  0  0
 18 19  2  0  0  0
 19 20  1  0  0  0
 19 58  1  0  0  0
 20 21  2  0  0  0
 20 59  1  0  0  0
 21 22  1  0  0  0
 21 24  1  0  0  0
 22 23  2  0  0  0
 22 60  1  0  0  0
 23 61  1  0  0  0
 24 25  2  0  0  0
 24 26  1  0  0  0
 26 27  1  0  0  0
 26 62  1  0  0  0
 27 44  1  0  0  0
 27 28  1  0  0  0
 27 41  1  0  0  0
 28 29  1  0  0  0
 28 63  1  0  0  0
 28 64  1  0  0  0
 29 30  1  0  0  0
 29 65  1  0  0  0
 29 66  1  0  0  0
 30 31  2  0  0  0
 30 32  1  0  0  0
 32 33  1  0  0  0
 32 67  1  0  0  0
 33 45  1  0  0  0
 33 34  1  0  0  0
 33 38  1  0  0  0
 34 35  1  0  0  0
 34 68  1  0  0  0
 34 69  1  0  0  0
 35 36  2  0  0  0
 35 37  1  0  0  0
 37 70  1  0  0  0
 38 39  2  0  0  0
 38 40  1  0  0  0
 40 71  1  0  0  0
 41 42  2  0  0  0
 41 43  1  0  0  0
 43 72  1  0  0  0
M  END
> <s_m_entry_id>
41907

> <s_m_entry_name>
ligand_docking-pose.267

> <s_m_Source_Path>
/home/csk/Desktop/cluster/DUD-E-result/tysy

> <s_m_Source_File>
ligand_docking-pose.sdf

> <i_m_Source_File_Index>
267

> <i_lp_mmshare_version>
53161

> <i_f3d_flags>
0

> <r_lp_tautomer_probability>
0.883938

> <s_lp_Force_Field>
OPLS_2005

> <r_lp_Energy>
23.66852

> <b_lp_Chiralities_Consistent>
1

> <s_lp_Variant>
183887-1

> <s_i_glide_gridfile>
glide-grid_1syn

> <i_i_glide_lignum>
592

> <i_i_glide_rotatable_bonds>
20

> <r_i_docking_score>
-7.19264119035789

> <r_i_glide_ligand_efficiency>
-0.16727072535716

> <r_i_glide_ligand_efficiency_sa>
-0.586015934041048

> <r_i_glide_ligand_efficiency_ln>
-1.51067819364491

> <r_i_glide_gscore>
-7.19264119035789

> <r_i_glide_lipo>
-2.06876004541309

> <r_i_glide_hbond>
-0.297896386053299

> <r_i_glide_metal>
0

> <r_i_glide_rewards>
-1.69814333460365

> <r_i_glide_evdw>
-57.5339202880859

> <r_i_glide_ecoul>
-7.61236763000488

> <r_i_glide_erotb>
0.908389046361266

> <r_i_glide_esite>
-0.0176793117440935

> <r_i_glide_emodel>
-86.1958880604982

> <r_i_glide_energy>
-65.1462879180908

> <r_i_glide_einternal>
8.71219348907471

> <i_i_glide_confnum>
29

> <i_i_glide_posenum>
79

> <r_i_glide_eff_state_penalty>
0

> <s_user_duplicate_titles>
183887

> <s_m_subgroup_title>
dock_pv

> <s_m_subgroupid>
dock_pv1

> <b_m_subgroup_collapsed>
0

$$$$
282131
                    3D
 Schrodinger Suite 2021-1.
 60 62  0  0  1  0            999 V2000
   21.6596   14.2280   33.9823 C   0  0  0  0  0  0
   20.3432   14.2349   34.2314 C   0  0  0  0  0  0
   19.2191   13.8774   33.2876 C   0  0  0  0  0  0
   17.8976   14.2919   33.7866 N   0  0  0  0  0  0
   17.7108   15.7513   33.7547 C   0  0  0  0  0  0
   16.4092   16.2250   33.1166 C   0  0  0  0  0  0
   15.5798   17.1279   33.7871 C   0  0  0  0  0  0
   14.4467   17.6560   33.1909 C   0  0  0  0  0  0
   14.1124   17.2757   31.8811 C   0  0  0  0  0  0
   14.9378   16.3475   31.1759 C   0  0  0  0  0  0
   16.0921   15.8281   31.8176 C   0  0  0  0  0  0
   14.5198   16.0229   29.8541 C   0  0  0  0  0  0
   13.3912   16.5443   29.3257 N   0  0  0  0  0  0
   12.6786   17.3888   30.0982 C   0  0  0  0  0  0
   12.9920   17.8054   31.3364 N   0  0  0  0  0  0
   11.4750   17.8277   29.5910 N   0  0  0  0  0  0
   15.2975   15.1545   29.1407 O   0  0  0  0  0  0
   17.2095   13.5046   34.7630 C   0  0  0  0  0  0
   16.1467   14.0335   35.5144 C   0  0  0  0  0  0
   15.4178   13.2514   36.4054 C   0  0  0  0  0  0
   15.7399   11.9007   36.6013 C   0  0  0  0  0  0
   16.8173   11.3706   35.8813 C   0  0  0  0  0  0
   17.5397   12.1589   34.9881 C   0  0  0  0  0  0
   14.9922   11.0246   37.5909 C   0  0  0  0  0  0
   15.3170    9.8451   37.7568 O   0  0  0  0  0  0
   14.0187   11.6144   38.3159 N   0  0  0  0  0  0
   13.2201   10.9711   39.3723 C   0  0  1  0  0  0
   12.4542   12.0536   40.1889 C   0  0  0  0  0  0
   13.3319   12.9092   41.1319 C   0  0  0  0  0  0
   13.7919   12.1668   42.3921 C   0  0  0  0  0  0
   13.4399   11.0263   42.6856 O   0  0  0  0  0  0
   14.5896   12.9316   43.1910 O   0  0  0  0  0  0
   12.2551    9.8890   38.8355 C   0  0  0  0  0  0
   11.8846    9.8069   37.6834 O   0  0  0  0  0  0
   11.8826    9.0672   39.8613 O   0  0  0  0  0  0
   22.3704   14.5109   34.7432 H   0  0  0  0  0  0
   22.0426   13.9104   33.0204 H   0  0  0  0  0  0
   20.0126   14.5518   35.1910 H   0  0  0  0  0  0
   19.2708   12.8074   33.1070 H   0  0  0  0  0  0
   19.4033   14.3198   32.3067 H   0  0  0  0  0  0
   18.5187   16.2279   33.1992 H   0  0  0  0  0  0
   17.8192   16.1146   34.7720 H   0  0  0  0  0  0
   15.7918   17.4473   34.7902 H   0  0  0  0  0  0
   13.8185   18.3599   33.7209 H   0  0  0  0  0  0
   16.7348   15.1373   31.2887 H   0  0  0  0  0  0
   10.9344   18.5305   30.0844 H   0  0  0  0  0  0
   11.2679   17.6089   28.6348 H   0  0  0  0  0  0
   14.9089   14.9954   28.2774 H   0  0  0  0  0  0
   15.8452   15.0608   35.4143 H   0  0  0  0  0  0
   14.6100   13.7282   36.9398 H   0  0  0  0  0  0
   17.1131   10.3386   36.0070 H   0  0  0  0  0  0
   18.3467   11.6747   34.4639 H   0  0  0  0  0  0
   13.7720   12.5647   38.0952 H   0  0  0  0  0  0
   13.9282   10.4565   40.0248 H   0  0  0  0  0  0
   11.9267   12.7192   39.5032 H   0  0  0  0  0  0
   11.6654   11.5968   40.7908 H   0  0  0  0  0  0
   14.1924   13.2973   40.5920 H   0  0  0  0  0  0
   12.7605   13.7789   41.4572 H   0  0  0  0  0  0
   14.8644   12.4525   43.9827 H   0  0  0  0  0  0
   12.3279    9.2779   40.6832 H   0  0  0  0  0  0
  1  2  2  0  0  0
  1 36  1  0  0  0
  1 37  1  0  0  0
  2  3  1  0  0  0
  2 38  1  0  0  0
  3  4  1  0  0  0
  3 39  1  0  0  0
  3 40  1  0  0  0
  4  5  1  0  0  0
  4 18  1  0  0  0
  5  6  1  0  0  0
  5 41  1  0  0  0
  5 42  1  0  0  0
  6 11  1  0  0  0
  6  7  2  0  0  0
  7  8  1  0  0  0
  7 43  1  0  0  0
  8  9  2  0  0  0
  8 44  1  0  0  0
  9 15  1  0  0  0
  9 10  1  0  0  0
 10 11  2  0  0  0
 10 12  1  0  0  0
 11 45  1  0  0  0
 12 13  2  0  0  0
 12 17  1  0  0  0
 13 14  1  0  0  0
 14 15  2  0  0  0
 14 16  1  0  0  0
 16 46  1  0  0  0
 16 47  1  0  0  0
 17 48  1  0  0  0
 18 23  1  0  0  0
 18 19  2  0  0  0
 19 20  1  0  0  0
 19 49  1  0  0  0
 20 21  2  0  0  0
 20 50  1  0  0  0
 21 22  1  0  0  0
 21 24  1  0  0  0
 22 23  2  0  0  0
 22 51  1  0  0  0
 23 52  1  0  0  0
 24 25  2  0  0  0
 24 26  1  0  0  0
 26 27  1  0  0  0
 26 53  1  0  0  0
 27 28  1  0  0  0
 27 33  1  0  0  0
 27 54  1  0  0  0
 28 29  1  0  0  0
 28 55  1  0  0  0
 28 56  1  0  0  0
 29 30  1  0  0  0
 29 57  1  0  0  0
 29 58  1  0  0  0
 30 31  2  0  0  0
 30 32  1  0  0  0
 32 59  1  0  0  0
 33 34  2  0  0  0
 33 35  1  0  0  0
 35 60  1  0  0  0
M  END
> <s_m_entry_id>
41908

> <s_m_entry_name>
ligand_docking-pose.268

> <s_m_Source_Path>
/home/csk/Desktop/cluster/DUD-E-result/tysy

> <s_m_Source_File>
ligand_docking-pose.sdf

> <i_m_Source_File_Index>
268

> <i_lp_mmshare_version>
53161

> <i_f3d_flags>
0

> <r_lp_tautomer_probability>
1

> <s_lp_Force_Field>
OPLS_2005

> <r_lp_Energy>
11.266633

> <b_lp_Chiralities_Consistent>
1

> <s_lp_Variant>
282131-2

> <s_i_glide_gridfile>
glide-grid_1syn

> <i_i_glide_lignum>
809

> <i_i_glide_rotatable_bonds>
15

> <r_i_docking_score>
-7.19141185786267

> <r_i_glide_ligand_efficiency>
-0.205468910224648

> <r_i_glide_ligand_efficiency_sa>
-0.672102429230489

> <r_i_glide_ligand_efficiency_ln>
-1.57867450758776

> <r_i_glide_gscore>
-7.19141185786267

> <r_i_glide_lipo>
-3.64326276341428

> <r_i_glide_hbond>
-0.427104410416964

> <r_i_glide_metal>
0

> <r_i_glide_rewards>
-0.773993598220259

> <r_i_glide_evdw>
-43.5394172668457

> <r_i_glide_ecoul>
-7.99091339111328

> <r_i_glide_erotb>
1.05810745734037

> <r_i_glide_esite>
-0.0295506711422583

> <r_i_glide_emodel>
-67.9237195076072

> <r_i_glide_energy>
-51.530330657959

> <r_i_glide_einternal>
8.12977027893066

> <i_i_glide_confnum>
68

> <i_i_glide_posenum>
144

> <r_i_glide_eff_state_penalty>
0

> <s_user_duplicate_titles>
282131

> <s_m_subgroup_title>
dock_pv

> <s_m_subgroupid>
dock_pv1

> <b_m_subgroup_collapsed>
0

$$$$
268629
                    3D
 Schrodinger Suite 2021-1.
 65 68  0  0  1  0            999 V2000
    8.0698    9.7105   30.7535 C   0  0  0  0  0  0
    8.4224   10.3650   32.0702 C   0  0  0  0  0  0
    9.4885    9.8268   32.7613 N   0  0  0  0  0  0
    9.9122   10.4001   33.9610 C   0  0  0  0  0  0
   11.0056    9.8978   34.6519 C   0  0  0  0  0  0
   11.4303   10.5256   35.8198 C   0  0  0  0  0  0
   10.7750   11.6710   36.3041 C   0  0  0  0  0  0
    9.6537   12.1503   35.6149 C   0  0  0  0  0  0
    9.2187   11.5152   34.4420 C   0  0  0  0  0  0
    8.0125   12.0332   33.6670 C   0  0  0  0  0  0
    7.7313   11.3635   32.4689 N   0  0  0  0  0  0
    7.3705   12.9817   34.1158 O   0  0  0  0  0  0
   11.2345   12.4387   37.5541 C   0  0  0  0  0  0
   12.4228   11.8907   38.2358 N   0  0  0  0  0  0
   12.1520   10.7928   39.1789 C   0  0  0  0  0  0
   12.8466   10.9341   40.4738 C   0  0  0  0  0  0
   13.3947   11.0332   41.5608 C   0  0  0  0  0  0
   13.6777   12.0045   37.5660 C   0  0  0  0  0  0
   14.0076   13.1734   36.8649 C   0  0  0  0  0  0
   15.2014   13.2766   36.1553 C   0  0  0  0  0  0
   16.0969   12.1977   36.1062 C   0  0  0  0  0  0
   15.7802   11.0355   36.8157 C   0  0  0  0  0  0
   14.6022   10.9492   37.5535 C   0  0  0  0  0  0
   17.3928   12.2622   35.3252 C   0  0  0  0  0  0
   18.2933   11.4456   35.5252 O   0  0  0  0  0  0
   17.4724   13.2226   34.3909 N   0  0  0  0  0  0
   18.5963   13.4765   33.4808 C   0  0  1  0  0  0
   18.1158   13.9296   32.0733 C   0  0  0  0  0  0
   16.9929   14.9812   31.9946 C   0  0  0  0  0  0
   16.6337   15.8416   33.0448 C   0  0  0  0  0  0
   15.6062   16.7689   32.8900 C   0  0  0  0  0  0
   14.9311   16.8626   31.6771 C   0  0  0  0  0  0
   15.2796   16.0280   30.6070 C   0  0  0  0  0  0
   16.3063   15.0894   30.7853 C   0  0  0  0  0  0
   14.5922   16.1366   29.3048 N   0  3  0  0  0  0
   13.6588   16.9254   29.1910 O   0  5  0  0  0  0
   14.9920   15.4270   28.3903 O   0  0  0  0  0  0
   19.6176   14.4843   34.0508 C   0  0  0  0  0  0
   19.3232   15.4011   34.7890 O   0  0  0  0  0  0
   20.8742   14.2280   33.5793 O   0  0  0  0  0  0
    7.2706   10.2407   30.2326 H   0  0  0  0  0  0
    8.9320    9.6873   30.0871 H   0  0  0  0  0  0
    7.7378    8.6847   30.9074 H   0  0  0  0  0  0
   11.5315    9.0291   34.2840 H   0  0  0  0  0  0
   12.2840   10.1098   36.3286 H   0  0  0  0  0  0
    9.1362   13.0266   35.9856 H   0  0  0  0  0  0
   10.0075    9.0607   32.3568 H   0  0  0  0  0  0
   11.3831   13.4845   37.2879 H   0  0  0  0  0  0
   10.3972   12.4532   38.2537 H   0  0  0  0  0  0
   11.0878   10.7421   39.4131 H   0  0  0  0  0  0
   12.3946    9.8231   38.7446 H   0  0  0  0  0  0
   13.8972   11.1150   42.4990 H   0  0  0  0  0  0
   13.3509   14.0284   36.8689 H   0  0  0  0  0  0
   15.4088   14.2082   35.6488 H   0  0  0  0  0  0
   16.4527   10.1896   36.8084 H   0  0  0  0  0  0
   14.4105   10.0285   38.0801 H   0  0  0  0  0  0
   16.6786   13.8279   34.2616 H   0  0  0  0  0  0
   19.1242   12.5298   33.3524 H   0  0  0  0  0  0
   18.9580   14.2604   31.4605 H   0  0  0  0  0  0
   17.7391   13.0290   31.5827 H   0  0  0  0  0  0
   17.1295   15.8183   33.9981 H   0  0  0  0  0  0
   15.3384   17.4229   33.7077 H   0  0  0  0  0  0
   14.1445   17.5975   31.5701 H   0  0  0  0  0  0
   16.5863   14.4357   29.9697 H   0  0  0  0  0  0
   20.9888   13.3392   33.1913 H   0  0  0  0  0  0
  1 41  1  0  0  0
  1 42  1  0  0  0
  1 43  1  0  0  0
  1  2  1  0  0  0
  2  3  1  0  0  0
  2 11  2  0  0  0
  3  4  1  0  0  0
  3 47  1  0  0  0
  4  9  2  0  0  0
  4  5  1  0  0  0
  5  6  2  0  0  0
  5 44  1  0  0  0
  6  7  1  0  0  0
  6 45  1  0  0  0
  7  8  2  0  0  0
  7 13  1  0  0  0
  8  9  1  0  0  0
  8 46  1  0  0  0
  9 10  1  0  0  0
 10 12  2  0  0  0
 10 11  1  0  0  0
 13 14  1  0  0  0
 13 48  1  0  0  0
 13 49  1  0  0  0
 14 15  1  0  0  0
 14 18  1  0  0  0
 15 16  1  0  0  0
 15 50  1  0  0  0
 15 51  1  0  0  0
 16 17  3  0  0  0
 17 52  1  0  0  0
 18 23  1  0  0  0
 18 19  2  0  0  0
 19 20  1  0  0  0
 19 53  1  0  0  0
 20 21  2  0  0  0
 20 54  1  0  0  0
 21 22  1  0  0  0
 21 24  1  0  0  0
 22 23  2  0  0  0
 22 55  1  0  0  0
 23 56  1  0  0  0
 24 25  2  0  0  0
 24 26  1  0  0  0
 26 27  1  0  0  0
 26 57  1  0  0  0
 27 28  1  0  0  0
 27 38  1  0  0  0
 27 58  1  0  0  0
 28 29  1  0  0  0
 28 59  1  0  0  0
 28 60  1  0  0  0
 29 34  1  0  0  0
 29 30  2  0  0  0
 30 31  1  0  0  0
 30 61  1  0  0  0
 31 32  2  0  0  0
 31 62  1  0  0  0
 32 33  1  0  0  0
 32 63  1  0  0  0
 33 34  2  0  0  0
 33 35  1  0  0  0
 34 64  1  0  0  0
 35 36  1  0  0  0
 35 37  2  0  0  0
 38 39  2  0  0  0
 38 40  1  0  0  0
 40 65  1  0  0  0
M  CHG  2  35   1  36  -1
M  END
> <s_m_entry_id>
41909

> <s_m_entry_name>
ligand_docking-pose.269

> <s_m_Source_Path>
/home/csk/Desktop/cluster/DUD-E-result/tysy

> <s_m_Source_File>
ligand_docking-pose.sdf

> <i_m_Source_File_Index>
269

> <i_lp_mmshare_version>
53161

> <i_f3d_flags>
0

> <r_lp_tautomer_probability>
0.116051

> <s_lp_Force_Field>
OPLS_2005

> <r_lp_Energy>
24.079518

> <b_lp_Chiralities_Consistent>
1

> <s_lp_Variant>
268629-4

> <s_i_glide_gridfile>
glide-grid_1syn

> <i_i_glide_lignum>
553

> <i_i_glide_rotatable_bonds>
13

> <r_i_docking_score>
-7.18853931349125

> <r_i_glide_ligand_efficiency>
-0.179713482837281

> <r_i_glide_ligand_efficiency_sa>
-0.61461146513475

> <r_i_glide_ligand_efficiency_ln>
-1.53310388629935

> <r_i_glide_gscore>
-7.18853931349125

> <r_i_glide_lipo>
-2.98698393272426

> <r_i_glide_hbond>
-0.121146519813692

> <r_i_glide_metal>
0

> <r_i_glide_rewards>
-0.579156140113917

> <r_i_glide_evdw>
-57.0566368103027

> <r_i_glide_ecoul>
-9.12169551849365

> <r_i_glide_erotb>
0.781032918317589

> <r_i_glide_esite>
-0.0611994708677866

> <r_i_glide_emodel>
-92.5776338324834

> <r_i_glide_energy>
-66.1783323287964

> <r_i_glide_einternal>
8.96237945556641

> <i_i_glide_confnum>
10

> <i_i_glide_posenum>
13

> <r_i_glide_eff_state_penalty>
0

> <s_user_duplicate_titles>
268629

> <s_m_subgroup_title>
dock_pv

> <s_m_subgroupid>
dock_pv1

> <b_m_subgroup_collapsed>
0

$$$$
170589
                    3D
 Schrodinger Suite 2021-1.
 58 60  0  0  1  0            999 V2000
   19.1498   10.4431   35.4427 C   0  0  0  0  0  0
   18.8023   11.4732   34.8935 C   0  0  0  0  0  0
   18.2471   12.6540   34.2136 C   0  0  0  0  0  0
   17.2831   13.4509   35.0060 N   0  0  0  0  0  0
   17.4104   14.9035   34.8385 C   0  0  0  0  0  0
   16.5457   15.4282   33.6951 C   0  0  0  0  0  0
   16.8144   15.0694   32.3712 C   0  0  0  0  0  0
   16.0547   15.5785   31.3196 C   0  0  0  0  0  0
   15.0133   16.5012   31.5743 C   0  0  0  0  0  0
   14.7418   16.8863   32.9213 C   0  0  0  0  0  0
   15.5121   16.3222   33.9752 C   0  0  0  0  0  0
   13.7051   17.8458   33.1003 C   0  0  0  0  0  0
   13.0226   18.3649   32.0551 N   0  0  0  0  0  0
   13.3458   17.9140   30.8276 C   0  0  0  0  0  0
   14.3064   17.0115   30.5260 N   0  0  0  0  0  0
   12.5966   18.4123   29.7772 N   0  0  0  0  0  0
   13.4477   18.2280   34.3841 O   0  0  0  0  0  0
   16.1755   12.8975   35.7276 C   0  0  0  0  0  0
   15.8185   11.5479   35.5895 C   0  0  0  0  0  0
   14.8568   10.9494   36.3919 C   0  0  0  0  0  0
   14.2019   11.6886   37.3784 C   0  0  0  0  0  0
   14.4526   13.0653   37.4621 C   0  0  0  0  0  0
   15.4118   13.6571   36.6350 C   0  0  0  0  0  0
   13.8020   13.8382   38.3654 F   0  0  0  0  0  0
   13.3008   10.9836   38.3556 C   0  0  0  0  0  0
   13.4414   11.1519   39.5676 O   0  0  0  0  0  0
   12.4299   10.1135   37.8061 N   0  0  0  0  0  0
   11.5767    9.1248   38.4933 C   0  0  1  0  0  0
   12.4712    7.9622   39.0293 C   0  0  0  0  0  0
   13.1520    7.1293   37.9108 C   0  0  0  0  0  0
   14.1927    6.1372   38.4435 C   0  0  0  0  0  0
   14.7880    6.2816   39.5077 O   0  0  0  0  0  0
   14.4331    5.0968   37.5907 O   0  0  0  0  0  0
   10.6084    9.7110   39.5608 C   0  0  0  0  0  0
   10.5206   10.8850   39.8555 O   0  0  0  0  0  0
    9.8268    8.7186   40.0780 O   0  0  0  0  0  0
   10.9225    8.7194   37.7191 H   0  0  0  0  0  0
   19.3891    9.5179   35.9046 H   0  0  0  0  0  0
   17.7911   12.3033   33.2902 H   0  0  0  0  0  0
   19.1110   13.2508   33.9158 H   0  0  0  0  0  0
   18.4448   15.1699   34.6116 H   0  0  0  0  0  0
   17.2011   15.4253   35.7699 H   0  0  0  0  0  0
   17.6247   14.3913   32.1467 H   0  0  0  0  0  0
   16.2684   15.2884   30.3004 H   0  0  0  0  0  0
   15.3069   16.6138   34.9955 H   0  0  0  0  0  0
   12.8010   18.1069   28.8410 H   0  0  0  0  0  0
   11.8250   19.0285   29.9866 H   0  0  0  0  0  0
   12.9986   19.0881   34.4177 H   0  0  0  0  0  0
   16.2907   10.9216   34.8515 H   0  0  0  0  0  0
   14.6740    9.8912   36.2695 H   0  0  0  0  0  0
   15.5907   14.7093   36.7797 H   0  0  0  0  0  0
   12.3416   10.1267   36.8009 H   0  0  0  0  0  0
   13.2301    8.3698   39.7015 H   0  0  0  0  0  0
   11.8917    7.2689   39.6407 H   0  0  0  0  0  0
   12.3908    6.5911   37.3430 H   0  0  0  0  0  0
   13.6654    7.7826   37.2045 H   0  0  0  0  0  0
   13.8947    5.0640   36.7957 H   0  0  0  0  0  0
   10.0049    7.8606   39.6899 H   0  0  0  0  0  0
  1  2  3  0  0  0
  1 38  1  0  0  0
  2  3  1  0  0  0
  3  4  1  0  0  0
  3 39  1  0  0  0
  3 40  1  0  0  0
  4  5  1  0  0  0
  4 18  1  0  0  0
  5  6  1  0  0  0
  5 41  1  0  0  0
  5 42  1  0  0  0
  6 11  1  0  0  0
  6  7  2  0  0  0
  7  8  1  0  0  0
  7 43  1  0  0  0
  8  9  2  0  0  0
  8 44  1  0  0  0
  9 15  1  0  0  0
  9 10  1  0  0  0
 10 11  2  0  0  0
 10 12  1  0  0  0
 11 45  1  0  0  0
 12 13  2  0  0  0
 12 17  1  0  0  0
 13 14  1  0  0  0
 14 15  2  0  0  0
 14 16  1  0  0  0
 16 46  1  0  0  0
 16 47  1  0  0  0
 17 48  1  0  0  0
 18 23  1  0  0  0
 18 19  2  0  0  0
 19 20  1  0  0  0
 19 49  1  0  0  0
 20 21  2  0  0  0
 20 50  1  0  0  0
 21 22  1  0  0  0
 21 25  1  0  0  0
 22 23  2  0  0  0
 22 24  1  0  0  0
 23 51  1  0  0  0
 25 26  2  0  0  0
 25 27  1  0  0  0
 27 28  1  0  0  0
 27 52  1  0  0  0
 28 37  1  0  0  0
 28 29  1  0  0  0
 28 34  1  0  0  0
 29 30  1  0  0  0
 29 53  1  0  0  0
 29 54  1  0  0  0
 30 31  1  0  0  0
 30 55  1  0  0  0
 30 56  1  0  0  0
 31 32  2  0  0  0
 31 33  1  0  0  0
 33 57  1  0  0  0
 34 35  2  0  0  0
 34 36  1  0  0  0
 36 58  1  0  0  0
M  END
> <s_m_entry_id>
41910

> <s_m_entry_name>
ligand_docking-pose.270

> <s_m_Source_Path>
/home/csk/Desktop/cluster/DUD-E-result/tysy

> <s_m_Source_File>
ligand_docking-pose.sdf

> <i_m_Source_File_Index>
270

> <i_lp_mmshare_version>
53161

> <i_f3d_flags>
0

> <r_lp_tautomer_probability>
1

> <s_lp_Force_Field>
OPLS_2005

> <r_lp_Energy>
8.218643

> <b_lp_Chiralities_Consistent>
1

> <s_lp_Variant>
170589-1

> <s_i_glide_gridfile>
glide-grid_1syn

> <i_i_glide_lignum>
813

> <i_i_glide_rotatable_bonds>
15

> <r_i_docking_score>
-7.17733385876129

> <r_i_glide_ligand_efficiency>
-0.199370384965591

> <r_i_glide_ligand_efficiency_sa>
-0.658306505954146

> <r_i_glide_ligand_efficiency_ln>
-1.56590033882981

> <r_i_glide_gscore>
-7.17733385876129

> <r_i_glide_lipo>
-3.20931429361195

> <r_i_glide_hbond>
-0.155940533391379

> <r_i_glide_metal>
0

> <r_i_glide_rewards>
-0.731357607066054

> <r_i_glide_evdw>
-49.8978805541992

> <r_i_glide_ecoul>
-10.4717245101929

> <r_i_glide_erotb>
0.996521074189187

> <r_i_glide_esite>
-0.0115897946421987

> <r_i_glide_emodel>
-85.8392840541082

> <r_i_glide_energy>
-60.3696050643921

> <r_i_glide_einternal>
6.95686626434326

> <i_i_glide_confnum>
78

> <i_i_glide_posenum>
389

> <r_i_glide_eff_state_penalty>
0

> <s_user_duplicate_titles>
170589

> <s_m_subgroup_title>
dock_pv

> <s_m_subgroupid>
dock_pv1

> <b_m_subgroup_collapsed>
0

$$$$
183948
                    3D
 Schrodinger Suite 2021-1.
 63 65  0  0  1  0            999 V2000
   14.0299   17.4200   29.2042 C   0  0  0  0  0  0
   14.3544   17.0117   30.6239 C   0  0  0  0  0  0
   15.4805   16.2317   30.8166 N   0  0  0  0  0  0
   15.8428   15.8272   32.1055 C   0  0  0  0  0  0
   16.9580   15.0270   32.3324 C   0  0  0  0  0  0
   17.2044   14.5331   33.6171 C   0  0  0  0  0  0
   16.3335   14.8298   34.6754 C   0  0  0  0  0  0
   15.2786   15.7284   34.4541 C   0  0  0  0  0  0
   15.0243   16.2204   33.1689 C   0  0  0  0  0  0
   13.8122   17.1031   32.9026 C   0  0  0  0  0  0
   13.5910   17.4277   31.5586 N   0  0  0  0  0  0
   13.1059   17.4547   33.8453 O   0  0  0  0  0  0
   16.5343   14.1519   36.0357 C   0  0  0  0  0  0
   15.3141   13.4778   36.5261 N   0  0  0  0  0  0
   14.3528   14.3011   37.2764 C   0  0  0  0  0  0
   12.9444   14.0874   36.8650 C   0  0  0  0  0  0
   11.7815   13.8281   36.6006 C   0  0  0  0  0  0
   15.2241   12.0549   36.5936 C   0  0  0  0  0  0
   14.3233   11.4366   37.4763 C   0  0  0  0  0  0
   14.0996   10.0749   37.4560 C   0  0  0  0  0  0
   14.8414    9.2508   36.6114 C   0  0  0  0  0  0
   15.7913    9.8408   35.7627 C   0  0  0  0  0  0
   15.9739   11.2255   35.7496 C   0  0  0  0  0  0
   14.6642    7.7514   36.6481 C   0  0  0  0  0  0
   15.3920    7.0279   35.9888 O   0  0  0  0  0  0
   13.7270    7.2525   37.4693 N   0  0  0  0  0  0
   13.4934    5.8413   37.8041 C   0  0  2  0  0  0
   12.3302    5.7017   38.8325 C   0  0  0  0  0  0
   12.5352    6.2530   40.2785 C   0  0  0  0  0  0
   12.9488    7.7287   40.3908 C   0  0  0  0  0  0
   12.0915    8.6079   40.4560 O   0  0  0  0  0  0
   14.2676    7.9782   40.3907 N   0  0  0  0  0  0
   14.8871    9.2989   40.4660 C   0  0  0  0  0  0
   14.7767    5.1147   38.2976 C   0  0  0  0  0  0
   15.4837    5.5324   39.1943 O   0  0  0  0  0  0
   14.9917    3.9654   37.5924 O   0  0  0  0  0  0
   13.1663    5.3802   36.8694 H   0  0  0  0  0  0
   12.9715   17.6592   29.0884 H   0  0  0  0  0  0
   14.5921   18.3098   28.9237 H   0  0  0  0  0  0
   14.2635   16.6277   28.4930 H   0  0  0  0  0  0
   17.6040   14.7407   31.5157 H   0  0  0  0  0  0
   18.0420   13.8666   33.7690 H   0  0  0  0  0  0
   14.6158   16.0051   35.2581 H   0  0  0  0  0  0
   16.0319   15.9288   30.0318 H   0  0  0  0  0  0
   17.3812   13.4659   35.9956 H   0  0  0  0  0  0
   16.8290   14.9241   36.7485 H   0  0  0  0  0  0
   14.4317   14.0804   38.3408 H   0  0  0  0  0  0
   14.5889   15.3585   37.1907 H   0  0  0  0  0  0
   10.7631   13.5935   36.3876 H   0  0  0  0  0  0
   13.7405   11.9955   38.1887 H   0  0  0  0  0  0
   13.3542    9.6853   38.1328 H   0  0  0  0  0  0
   16.3858    9.2356   35.0923 H   0  0  0  0  0  0
   16.6761   11.6453   35.0462 H   0  0  0  0  0  0
   13.1448    7.9072   37.9673 H   0  0  0  0  0  0
   11.4269    6.1518   38.4153 H   0  0  0  0  0  0
   12.0705    4.6441   38.9130 H   0  0  0  0  0  0
   11.6047    6.1300   40.8343 H   0  0  0  0  0  0
   13.2448    5.6264   40.8205 H   0  0  0  0  0  0
   14.8907    7.1909   40.2528 H   0  0  0  0  0  0
   15.6219    9.4061   39.6691 H   0  0  0  0  0  0
   14.1653   10.1120   40.3781 H   0  0  0  0  0  0
   15.4123    9.4282   41.4093 H   0  0  0  0  0  0
   14.3833    3.8282   36.8538 H   0  0  0  0  0  0
  1 38  1  0  0  0
  1 39  1  0  0  0
  1 40  1  0  0  0
  1  2  1  0  0  0
  2  3  1  0  0  0
  2 11  2  0  0  0
  3  4  1  0  0  0
  3 44  1  0  0  0
  4  9  2  0  0  0
  4  5  1  0  0  0
  5  6  2  0  0  0
  5 41  1  0  0  0
  6  7  1  0  0  0
  6 42  1  0  0  0
  7  8  2  0  0  0
  7 13  1  0  0  0
  8  9  1  0  0  0
  8 43  1  0  0  0
  9 10  1  0  0  0
 10 12  2  0  0  0
 10 11  1  0  0  0
 13 14  1  0  0  0
 13 45  1  0  0  0
 13 46  1  0  0  0
 14 15  1  0  0  0
 14 18  1  0  0  0
 15 16  1  0  0  0
 15 47  1  0  0  0
 15 48  1  0  0  0
 16 17  3  0  0  0
 17 49  1  0  0  0
 18 23  1  0  0  0
 18 19  2  0  0  0
 19 20  1  0  0  0
 19 50  1  0  0  0
 20 21  2  0  0  0
 20 51  1  0  0  0
 21 22  1  0  0  0
 21 24  1  0  0  0
 22 23  2  0  0  0
 22 52  1  0  0  0
 23 53  1  0  0  0
 24 25  2  0  0  0
 24 26  1  0  0  0
 26 27  1  0  0  0
 26 54  1  0  0  0
 27 37  1  0  0  0
 27 28  1  0  0  0
 27 34  1  0  0  0
 28 29  1  0  0  0
 28 55  1  0  0  0
 28 56  1  0  0  0
 29 30  1  0  0  0
 29 57  1  0  0  0
 29 58  1  0  0  0
 30 31  2  0  0  0
 30 32  1  0  0  0
 32 33  1  0  0  0
 32 59  1  0  0  0
 33 60  1  0  0  0
 33 61  1  0  0  0
 33 62  1  0  0  0
 34 35  2  0  0  0
 34 36  1  0  0  0
 36 63  1  0  0  0
M  END
> <s_m_entry_id>
41911

> <s_m_entry_name>
ligand_docking-pose.271

> <s_m_Source_Path>
/home/csk/Desktop/cluster/DUD-E-result/tysy

> <s_m_Source_File>
ligand_docking-pose.sdf

> <i_m_Source_File_Index>
271

> <i_lp_mmshare_version>
53161

> <i_f3d_flags>
0

> <r_lp_tautomer_probability>
0.116051

> <s_lp_Force_Field>
OPLS_2005

> <r_lp_Energy>
17.70757

> <b_lp_Chiralities_Consistent>
1

> <s_lp_Variant>
183948-2

> <s_i_glide_gridfile>
glide-grid_1syn

> <i_i_glide_lignum>
581

> <i_i_glide_rotatable_bonds>
14

> <r_i_docking_score>
-7.17668481709108

> <r_i_glide_ligand_efficiency>
-0.199352356030308

> <r_i_glide_ligand_efficiency_sa>
-0.658246975721536

> <r_i_glide_ligand_efficiency_ln>
-1.56575873547245

> <r_i_glide_gscore>
-7.17668481709108

> <r_i_glide_lipo>
-3.59103266758577

> <r_i_glide_hbond>
0

> <r_i_glide_metal>
0

> <r_i_glide_rewards>
-0.894473879476011

> <r_i_glide_evdw>
-48.1444129943848

> <r_i_glide_ecoul>
-8.56344699859619

> <r_i_glide_erotb>
1.01876342589015

> <r_i_glide_esite>
-0.0182039964107852

> <r_i_glide_emodel>
-78.0770420855296

> <r_i_glide_energy>
-56.707859992981

> <r_i_glide_einternal>
6.79098510742188

> <i_i_glide_confnum>
37

> <i_i_glide_posenum>
315

> <r_i_glide_eff_state_penalty>
0

> <s_user_duplicate_titles>
183948

> <s_m_subgroup_title>
dock_pv

> <s_m_subgroupid>
dock_pv1

> <b_m_subgroup_collapsed>
0

$$$$
474
                    3D
 Schrodinger Suite 2021-1.
 65 68  0  0  1  0            999 V2000
   12.2906   17.9167   29.1912 C   0  0  0  0  0  0
   13.2271   17.5141   30.2980 C   0  0  0  0  0  0
   14.1747   16.6770   30.0774 N   0  0  0  0  0  0
   15.0360   16.3200   31.1300 C   0  0  0  0  0  0
   16.0754   15.4272   30.8792 C   0  0  0  0  0  0
   16.9665   15.0908   31.9043 C   0  0  0  0  0  0
   16.8209   15.6540   33.1822 C   0  0  0  0  0  0
   15.7646   16.5283   33.4393 C   0  0  0  0  0  0
   14.8854   16.8569   32.4121 C   0  0  0  0  0  0
   13.7247   17.7809   32.6626 C   0  0  0  0  0  0
   13.0200   18.0444   31.5389 N   0  0  0  0  0  0
   13.3944   18.2279   33.7527 O   0  0  0  0  0  0
   17.8368   15.4071   34.2875 C   0  0  0  0  0  0
   18.2285   13.9951   34.4333 N   0  0  0  0  0  0
   19.6530   13.6671   34.2888 C   0  0  0  0  0  0
   20.3246   14.2872   33.1515 C   0  0  0  0  0  0
   20.9299   14.6280   32.1512 C   0  0  0  0  0  0
   17.3896   13.0725   35.1249 C   0  0  0  0  0  0
   16.1170   13.4427   35.5912 C   0  0  0  0  0  0
   15.2855   12.5261   36.2320 C   0  0  0  0  0  0
   15.7130   11.2074   36.4286 C   0  0  0  0  0  0
   16.9803   10.8336   35.9912 C   0  0  0  0  0  0
   17.7981   11.7453   35.3479 C   0  0  0  0  0  0
   14.8460   10.1758   37.0941 C   0  0  0  0  0  0
   15.3480    9.2895   37.7912 O   0  0  0  0  0  0
   13.5315   10.2700   36.8248 N   0  0  0  0  0  0
   12.4739    9.3391   37.2490 C   0  0  2  0  0  0
   12.3779    9.1742   38.7980 C   0  0  0  0  0  0
   12.2886   10.5051   39.5483 C   0  0  0  0  0  0
   11.2529   11.4006   39.2743 C   0  0  0  0  0  0
   11.1769   12.6124   39.9552 C   0  0  0  0  0  0
   12.1345   12.9467   40.9232 C   0  0  0  0  0  0
   13.1741   12.0440   41.1897 C   0  0  0  0  0  0
   13.2462   10.8298   40.5114 C   0  0  0  0  0  0
   12.0397   14.2285   41.6612 N   0  3  0  0  0  0
   12.9940   14.5894   42.3460 O   0  5  0  0  0  0
   10.9934   14.8650   41.5910 O   0  0  0  0  0  0
   12.5528    7.9807   36.5046 C   0  0  0  0  0  0
   13.4277    7.6551   35.7266 O   0  0  0  0  0  0
   11.4526    7.2318   36.7956 O   0  0  0  0  0  0
   11.5465    9.7941   36.9003 H   0  0  0  0  0  0
   11.7925   17.0348   28.7917 H   0  0  0  0  0  0
   11.5198   18.6125   29.5260 H   0  0  0  0  0  0
   12.8374   18.3932   28.3781 H   0  0  0  0  0  0
   16.1961   15.0054   29.8929 H   0  0  0  0  0  0
   17.7839   14.4134   31.6994 H   0  0  0  0  0  0
   15.6409   16.9651   34.4212 H   0  0  0  0  0  0
   12.2547   18.6841   31.6762 H   0  0  0  0  0  0
   18.6947   16.0491   34.0844 H   0  0  0  0  0  0
   17.4599   15.7801   35.2286 H   0  0  0  0  0  0
   20.2203   13.8765   35.1906 H   0  0  0  0  0  0
   19.7918   12.6258   34.0279 H   0  0  0  0  0  0
   21.3919   14.7846   31.2087 H   0  0  0  0  0  0
   15.7391   14.4428   35.4539 H   0  0  0  0  0  0
   14.3153   12.8582   36.5730 H   0  0  0  0  0  0
   17.3456    9.8284   36.1327 H   0  0  0  0  0  0
   18.7499   11.3542   35.0348 H   0  0  0  0  0  0
   13.2363   11.0022   36.1986 H   0  0  0  0  0  0
   11.5057    8.5788   39.0726 H   0  0  0  0  0  0
   13.2343    8.6051   39.1647 H   0  0  0  0  0  0
   10.5035   11.1617   38.5330 H   0  0  0  0  0  0
   10.3684   13.2908   39.7195 H   0  0  0  0  0  0
   13.9326   12.2761   41.9245 H   0  0  0  0  0  0
   14.0583   10.1485   40.7229 H   0  0  0  0  0  0
   11.4521    6.4330   36.2627 H   0  0  0  0  0  0
  1 42  1  0  0  0
  1 43  1  0  0  0
  1 44  1  0  0  0
  1  2  1  0  0  0
  2  3  2  0  0  0
  2 11  1  0  0  0
  3  4  1  0  0  0
  4  9  2  0  0  0
  4  5  1  0  0  0
  5  6  2  0  0  0
  5 45  1  0  0  0
  6  7  1  0  0  0
  6 46  1  0  0  0
  7  8  2  0  0  0
  7 13  1  0  0  0
  8  9  1  0  0  0
  8 47  1  0  0  0
  9 10  1  0  0  0
 10 12  2  0  0  0
 10 11  1  0  0  0
 11 48  1  0  0  0
 13 14  1  0  0  0
 13 49  1  0  0  0
 13 50  1  0  0  0
 14 15  1  0  0  0
 14 18  1  0  0  0
 15 16  1  0  0  0
 15 51  1  0  0  0
 15 52  1  0  0  0
 16 17  3  0  0  0
 17 53  1  0  0  0
 18 23  1  0  0  0
 18 19  2  0  0  0
 19 20  1  0  0  0
 19 54  1  0  0  0
 20 21  2  0  0  0
 20 55  1  0  0  0
 21 22  1  0  0  0
 21 24  1  0  0  0
 22 23  2  0  0  0
 22 56  1  0  0  0
 23 57  1  0  0  0
 24 25  2  0  0  0
 24 26  1  0  0  0
 26 27  1  0  0  0
 26 58  1  0  0  0
 27 41  1  0  0  0
 27 28  1  0  0  0
 27 38  1  0  0  0
 28 29  1  0  0  0
 28 59  1  0  0  0
 28 60  1  0  0  0
 29 34  1  0  0  0
 29 30  2  0  0  0
 30 31  1  0  0  0
 30 61  1  0  0  0
 31 32  2  0  0  0
 31 62  1  0  0  0
 32 33  1  0  0  0
 32 35  1  0  0  0
 33 34  2  0  0  0
 33 63  1  0  0  0
 34 64  1  0  0  0
 35 36  1  0  0  0
 35 37  2  0  0  0
 38 39  2  0  0  0
 38 40  1  0  0  0
 40 65  1  0  0  0
M  CHG  2  35   1  36  -1
M  END
> <s_m_entry_id>
41912

> <s_m_entry_name>
ligand_docking-pose.272

> <s_m_Source_Path>
/home/csk/Desktop/cluster/DUD-E-result/tysy

> <s_m_Source_File>
ligand_docking-pose.sdf

> <i_m_Source_File_Index>
272

> <i_lp_mmshare_version>
53161

> <i_f3d_flags>
0

> <r_lp_tautomer_probability>
0.883938

> <s_lp_Force_Field>
OPLS_2005

> <r_lp_Energy>
24.841182

> <b_lp_Chiralities_Consistent>
1

> <s_lp_Variant>
474-1

> <s_i_glide_gridfile>
glide-grid_1syn

> <i_i_glide_lignum>
570

> <i_i_glide_rotatable_bonds>
13

> <r_i_docking_score>
-7.16224045833944

> <r_i_glide_ligand_efficiency>
-0.179056011458486

> <r_i_glide_ligand_efficiency_sa>
-0.612362944650779

> <r_i_glide_ligand_efficiency_ln>
-1.52749511443623

> <r_i_glide_gscore>
-7.16224045833944

> <r_i_glide_lipo>
-3.50327911357602

> <r_i_glide_hbond>
-0.169829029981011

> <r_i_glide_metal>
0

> <r_i_glide_rewards>
-0.719164644499895

> <r_i_glide_evdw>
-49.2205085754395

> <r_i_glide_ecoul>
-7.14284086227417

> <r_i_glide_erotb>
0.781032918317589

> <r_i_glide_esite>
-0.0185490304870074

> <r_i_glide_emodel>
-72.4266622036876

> <r_i_glide_energy>
-56.3633494377136

> <r_i_glide_einternal>
11.5077314376831

> <i_i_glide_confnum>
66

> <i_i_glide_posenum>
108

> <r_i_glide_eff_state_penalty>
0

> <s_user_duplicate_titles>
474

> <s_m_subgroup_title>
dock_pv

> <s_m_subgroupid>
dock_pv1

> <b_m_subgroup_collapsed>
0

$$$$
151253
                    3D
 Schrodinger Suite 2021-1.
 60 62  0  0  1  0            999 V2000
   14.1245   18.7154   33.9084 C   0  0  0  0  0  0
   15.1530   17.8142   33.5607 O   0  0  0  0  0  0
   15.1152   17.2072   32.3238 C   0  0  0  0  0  0
   14.2580   17.5751   31.2800 C   0  0  0  0  0  0
   14.3091   16.8838   30.0743 C   0  0  0  0  0  0
   15.1245   15.8192   29.8640 N   0  0  0  0  0  0
   15.9549   15.4279   30.8715 C   0  0  0  0  0  0
   16.0065   16.1292   32.1106 C   0  0  0  0  0  0
   16.9288   15.7201   33.0963 C   0  0  0  0  0  0
   17.6841   14.5647   32.9349 C   0  0  0  0  0  0
   17.6074   13.8550   31.7349 C   0  0  0  0  0  0
   16.7814   14.2907   30.6978 C   0  0  0  0  0  0
   18.6054   14.1110   34.0624 C   0  0  0  0  0  0
   18.0911   12.9404   34.7952 N   0  0  0  0  0  0
   19.1082   11.9568   35.1903 C   0  0  0  0  0  0
   18.9111   10.6392   34.5857 C   0  0  0  0  0  0
   18.6984    9.5645   34.0593 C   0  0  0  0  0  0
   16.8680   12.9660   35.5307 C   0  0  0  0  0  0
   16.2609   11.7735   35.9572 C   0  0  0  0  0  0
   15.1008   11.7782   36.7154 C   0  0  0  0  0  0
   14.5048   12.9881   37.0740 C   0  0  0  0  0  0
   15.0545   14.1846   36.6117 C   0  0  0  0  0  0
   16.2357   14.1688   35.8753 C   0  0  0  0  0  0
   13.3210   13.0122   37.9966 C   0  0  0  0  0  0
   12.4108   13.8280   37.8552 O   0  0  0  0  0  0
   13.3914   12.1175   38.9995 N   0  0  0  0  0  0
   12.4323   11.9105   40.0915 C   0  0  1  0  0  0
   12.3153   13.1921   40.9696 C   0  0  0  0  0  0
   13.6454   13.6502   41.6118 C   0  0  0  0  0  0
   13.7924   13.2045   43.0618 C   0  0  0  0  0  0
   13.3330   13.8282   44.0127 O   0  0  0  0  0  0
   14.4621   12.0291   43.1909 O   0  0  0  0  0  0
   11.0716   11.3755   39.5913 C   0  0  0  0  0  0
   10.0018   11.7913   39.9752 O   0  0  0  0  0  0
   11.2459   10.3474   38.7129 O   0  0  0  0  0  0
   13.3000   17.4256   28.7877 Cl  0  0  0  0  0  0
   12.8433   11.1148   40.7138 H   0  0  0  0  0  0
   14.2947   19.0272   34.9362 H   0  0  0  0  0  0
   14.1411   19.6031   33.2769 H   0  0  0  0  0  0
   13.1373   18.2534   33.8560 H   0  0  0  0  0  0
   13.5766   18.4064   31.3775 H   0  0  0  0  0  0
   17.0138   16.3103   33.9931 H   0  0  0  0  0  0
   18.1919   12.9566   31.6013 H   0  0  0  0  0  0
   16.7333   13.7401   29.7694 H   0  0  0  0  0  0
   18.7812   14.9301   34.7611 H   0  0  0  0  0  0
   19.5792   13.8941   33.6177 H   0  0  0  0  0  0
   20.1144   12.2755   34.9105 H   0  0  0  0  0  0
   19.1192   11.8285   36.2696 H   0  0  0  0  0  0
   18.5928    8.6281   33.5904 H   0  0  0  0  0  0
   16.6642   10.8075   35.7157 H   0  0  0  0  0  0
   14.6834   10.8310   37.0275 H   0  0  0  0  0  0
   14.6108   15.1343   36.8755 H   0  0  0  0  0  0
   16.6785   15.1162   35.6377 H   0  0  0  0  0  0
   14.1861   11.4979   39.0012 H   0  0  0  0  0  0
   11.5692   13.0397   41.7489 H   0  0  0  0  0  0
   11.9196   14.0164   40.3740 H   0  0  0  0  0  0
   13.6829   14.7388   41.5999 H   0  0  0  0  0  0
   14.5117   13.3144   41.0444 H   0  0  0  0  0  0
   14.5944   11.8276   44.1312 H   0  0  0  0  0  0
   10.3996   10.0346   38.3864 H   0  0  0  0  0  0
  1  2  1  0  0  0
  1 38  1  0  0  0
  1 39  1  0  0  0
  1 40  1  0  0  0
  2  3  1  0  0  0
  3  8  1  0  0  0
  3  4  2  0  0  0
  4  5  1  0  0  0
  4 41  1  0  0  0
  5  6  2  0  0  0
  5 36  1  0  0  0
  6  7  1  0  0  0
  7 12  2  0  0  0
  7  8  1  0  0  0
  8  9  2  0  0  0
  9 10  1  0  0  0
  9 42  1  0  0  0
 10 11  2  0  0  0
 10 13  1  0  0  0
 11 12  1  0  0  0
 11 43  1  0  0  0
 12 44  1  0  0  0
 13 14  1  0  0  0
 13 45  1  0  0  0
 13 46  1  0  0  0
 14 15  1  0  0  0
 14 18  1  0  0  0
 15 16  1  0  0  0
 15 47  1  0  0  0
 15 48  1  0  0  0
 16 17  3  0  0  0
 17 49  1  0  0  0
 18 23  1  0  0  0
 18 19  2  0  0  0
 19 20  1  0  0  0
 19 50  1  0  0  0
 20 21  2  0  0  0
 20 51  1  0  0  0
 21 22  1  0  0  0
 21 24  1  0  0  0
 22 23  2  0  0  0
 22 52  1  0  0  0
 23 53  1  0  0  0
 24 25  2  0  0  0
 24 26  1  0  0  0
 26 27  1  0  0  0
 26 54  1  0  0  0
 27 37  1  0  0  0
 27 28  1  0  0  0
 27 33  1  0  0  0
 28 29  1  0  0  0
 28 55  1  0  0  0
 28 56  1  0  0  0
 29 30  1  0  0  0
 29 57  1  0  0  0
 29 58  1  0  0  0
 30 31  2  0  0  0
 30 32  1  0  0  0
 32 59  1  0  0  0
 33 34  2  0  0  0
 33 35  1  0  0  0
 35 60  1  0  0  0
M  END
> <s_m_entry_id>
41914

> <s_m_entry_name>
ligand_docking-pose.274

> <s_m_Source_Path>
/home/csk/Desktop/cluster/DUD-E-result/tysy

> <s_m_Source_File>
ligand_docking-pose.sdf

> <i_m_Source_File_Index>
274

> <i_lp_mmshare_version>
53161

> <i_f3d_flags>
0

> <r_lp_tautomer_probability>
1

> <s_lp_Force_Field>
OPLS_2005

> <r_lp_Energy>
17.408941

> <b_lp_Chiralities_Consistent>
1

> <s_lp_Variant>
151253-1

> <s_i_glide_gridfile>
glide-grid_1syn

> <i_i_glide_lignum>
973

> <i_i_glide_rotatable_bonds>
15

> <r_i_docking_score>
-7.14655552431611

> <r_i_glide_ligand_efficiency>
-0.198515431231003

> <r_i_glide_ligand_efficiency_sa>
-0.655483510924737

> <r_i_glide_ligand_efficiency_ln>
-1.55918533778838

> <r_i_glide_gscore>
-7.14655552431611

> <r_i_glide_lipo>
-3.70110304951812

> <r_i_glide_hbond>
0

> <r_i_glide_metal>
0

> <r_i_glide_rewards>
-0.441689195999607

> <r_i_glide_evdw>
-56.957691192627

> <r_i_glide_ecoul>
-7.20767450332642

> <r_i_glide_erotb>
0.945244861819233

> <r_i_glide_esite>
-0.0199724054873018

> <r_i_glide_emodel>
-84.6036345803855

> <r_i_glide_energy>
-64.1653656959534

> <r_i_glide_einternal>
8.41806125640869

> <i_i_glide_confnum>
110

> <i_i_glide_posenum>
223

> <r_i_glide_eff_state_penalty>
0

> <s_user_duplicate_titles>
151253

> <s_m_subgroup_title>
dock_pv

> <s_m_subgroupid>
dock_pv1

> <b_m_subgroup_collapsed>
0

$$$$
337313
                    3D
 Schrodinger Suite 2021-1.
 36 38  0  0  1  0            999 V2000
   13.1777   13.8251   38.2133 C   0  0  0  0  0  0
   13.1676   13.7316   36.6822 C   0  0  0  0  0  0
   14.5627   13.5667   36.1159 C   0  0  0  0  0  0
   15.4110   14.4668   35.4738 C   0  0  0  0  0  0
   16.6622   13.7619   35.2799 C   0  0  0  0  0  0
   16.4458   12.4171   35.6887 C   0  0  0  0  0  0
   15.1819   12.3451   36.2074 N   0  0  0  0  0  0
   17.3079   11.4032   35.5900 N   0  0  0  0  0  0
   18.4809   11.7796   35.0369 C   0  0  0  0  0  0
   18.8555   13.0215   34.6634 N   0  0  0  0  0  0
   17.9616   14.0307   34.7913 C   0  0  0  0  0  0
   18.2659   15.3164   34.4499 O   0  0  0  0  0  0
   19.3920   10.7730   34.7959 N   0  0  0  0  0  0
   14.9900   16.1368   35.0711 S   0  0  0  0  0  0
   14.9748   16.2401   33.2974 C   0  0  0  0  0  0
   15.7609   15.4292   32.4768 C   0  0  0  0  0  0
   15.6488   15.5143   31.0950 C   0  0  0  0  0  0
   14.7654   16.4287   30.5137 C   0  0  0  0  0  0
   14.0354   17.2951   31.3380 C   0  0  0  0  0  0
   14.1417   17.2002   32.7225 C   0  0  0  0  0  0
   14.5894   16.4601   29.0471 N   0  3  0  0  0  0
   14.0257   17.4303   28.5488 O   0  5  0  0  0  0
   14.9951   15.5000   28.3952 O   0  0  0  0  0  0
   14.7390   11.5344   36.6114 H   0  0  0  0  0  0
   12.1708   13.9737   38.6034 H   0  0  0  0  0  0
   13.5828   12.9179   38.6645 H   0  0  0  0  0  0
   13.7900   14.6627   38.5526 H   0  0  0  0  0  0
   12.7001   14.6259   36.2698 H   0  0  0  0  0  0
   12.5206   12.9067   36.3792 H   0  0  0  0  0  0
   19.1606   15.3485   34.1067 H   0  0  0  0  0  0
   19.0974    9.8167   34.8877 H   0  0  0  0  0  0
   20.1706   11.0293   34.1877 H   0  0  0  0  0  0
   16.4367   14.6952   32.8728 H   0  0  0  0  0  0
   16.2375   14.8452   30.4828 H   0  0  0  0  0  0
   13.3619   18.0285   30.9123 H   0  0  0  0  0  0
   13.5557   17.8618   33.3466 H   0  0  0  0  0  0
  1  2  1  0  0  0
  1 25  1  0  0  0
  1 26  1  0  0  0
  1 27  1  0  0  0
  2  3  1  0  0  0
  2 28  1  0  0  0
  2 29  1  0  0  0
  3  7  1  0  0  0
  3  4  2  0  0  0
  4  5  1  0  0  0
  4 14  1  0  0  0
  5 11  2  0  0  0
  5  6  1  0  0  0
  6  7  1  0  0  0
  6  8  2  0  0  0
  7 24  1  0  0  0
  8  9  1  0  0  0
  9 10  2  0  0  0
  9 13  1  0  0  0
 10 11  1  0  0  0
 11 12  1  0  0  0
 12 30  1  0  0  0
 13 31  1  0  0  0
 13 32  1  0  0  0
 14 15  1  0  0  0
 15 20  1  0  0  0
 15 16  2  0  0  0
 16 17  1  0  0  0
 16 33  1  0  0  0
 17 18  2  0  0  0
 17 34  1  0  0  0
 18 19  1  0  0  0
 18 21  1  0  0  0
 19 20  2  0  0  0
 19 35  1  0  0  0
 20 36  1  0  0  0
 21 22  1  0  0  0
 21 23  2  0  0  0
M  CHG  2  21   1  22  -1
M  END
> <s_m_entry_id>
41915

> <s_m_entry_name>
ligand_docking-pose.275

> <s_m_Source_Path>
/home/csk/Desktop/cluster/DUD-E-result/tysy

> <s_m_Source_File>
ligand_docking-pose.sdf

> <i_m_Source_File_Index>
275

> <i_lp_mmshare_version>
53161

> <i_f3d_flags>
0

> <r_lp_tautomer_probability>
1

> <s_lp_Force_Field>
OPLS_2005

> <r_lp_Energy>
3.208921

> <b_lp_Chiralities_Consistent>
1

> <s_lp_Variant>
337313-1

> <s_i_glide_gridfile>
glide-grid_1syn

> <i_i_glide_lignum>
713

> <i_i_glide_rotatable_bonds>
5

> <r_i_docking_score>
-7.14506750680069

> <r_i_glide_ligand_efficiency>
-0.310655108991334

> <r_i_glide_ligand_efficiency_sa>
-0.883461805659281

> <r_i_glide_ligand_efficiency_ln>
-1.72774211103457

> <r_i_glide_gscore>
-7.14506750680069

> <r_i_glide_lipo>
-3.03130181366221

> <r_i_glide_hbond>
-0.16

> <r_i_glide_metal>
0

> <r_i_glide_rewards>
-1.85057266120104

> <r_i_glide_evdw>
-41.2597160339355

> <r_i_glide_ecoul>
-1.71376001834869

> <r_i_glide_erotb>
0.342829064910005

> <r_i_glide_esite>
-0.12597229239836

> <r_i_glide_emodel>
-61.0108721389022

> <r_i_glide_energy>
-42.9734760522842

> <r_i_glide_einternal>
3.07352614402771

> <i_i_glide_confnum>
1

> <i_i_glide_posenum>
194

> <r_i_glide_eff_state_penalty>
0

> <s_user_duplicate_titles>
337313

> <s_m_subgroup_title>
dock_pv

> <s_m_subgroupid>
dock_pv1

> <b_m_subgroup_collapsed>
0

$$$$
336
                    3D
 Schrodinger Suite 2021-1.
 56 59  0  0  1  0            999 V2000
   14.0509   14.6280   37.2387 C   0  0  0  0  0  0
   14.5690   13.3075   36.7373 C   0  0  0  0  0  0
   13.7347   12.1900   36.8725 C   0  0  0  0  0  0
   14.1694   10.9482   36.4377 C   0  0  0  0  0  0
   15.4428   10.8129   35.8939 C   0  0  0  0  0  0
   16.2826   11.9195   35.7805 C   0  0  0  0  0  0
   15.8487   13.1903   36.1560 C   0  0  0  0  0  0
   16.8117   14.3841   35.9915 C   0  0  0  0  0  0
   17.4287   14.5015   34.6530 N   0  0  0  0  0  0
   18.5872   13.6289   34.3709 C   0  0  0  0  0  0
   19.6792   14.2341   33.5910 C   0  0  0  0  0  0
   20.5298   14.6280   32.8100 C   0  0  0  0  0  0
   16.7041   15.1240   33.5956 C   0  0  0  0  0  0
   16.9335   14.7898   32.2506 C   0  0  0  0  0  0
   16.2366   15.4047   31.2197 C   0  0  0  0  0  0
   15.2637   16.3688   31.4927 C   0  0  0  0  0  0
   15.0357   16.7323   32.8311 C   0  0  0  0  0  0
   15.7426   16.1112   33.8564 C   0  0  0  0  0  0
   14.1331   17.6845   33.1691 F   0  0  0  0  0  0
   14.4821   16.9435   30.3404 C   0  0  0  0  0  0
   14.9229   16.8971   29.1910 O   0  0  0  0  0  0
   13.2421   17.3565   30.6347 N   0  0  0  0  0  0
   12.1685   17.5119   29.6644 C   0  0  0  0  0  0
   11.2969   16.2669   29.5910 C   0  0  0  0  0  0
    9.9660   16.1661   29.1910 C   0  0  0  0  0  0
    9.3870   14.9859   29.1910 N   0  0  0  0  0  0
   10.2129   14.0628   29.5910 C   0  0  0  0  0  0
   11.7920   14.6285   29.9910 S   0  0  0  0  0  0
   15.8938    9.4740   35.3582 C   0  0  0  0  0  0
   14.9936    8.4108   35.5369 N   0  0  0  0  0  0
   13.8423    8.5894   36.0640 C   0  0  0  0  0  0
   13.3684    9.8044   36.5256 N   0  0  0  0  0  0
   12.9345    7.3935   36.2338 C   0  0  0  0  0  0
   16.9831    9.4280   34.7910 O   0  0  0  0  0  0
   14.1920   15.3912   36.4730 H   0  0  0  0  0  0
   12.9845   14.5921   37.4654 H   0  0  0  0  0  0
   14.5920   14.9317   38.1339 H   0  0  0  0  0  0
   12.7510   12.2886   37.3041 H   0  0  0  0  0  0
   17.2756   11.7809   35.3885 H   0  0  0  0  0  0
   16.3642   15.3180   36.3165 H   0  0  0  0  0  0
   17.6118   14.2368   36.7074 H   0  0  0  0  0  0
   19.0276   13.2430   35.2883 H   0  0  0  0  0  0
   18.2636   12.7657   33.7875 H   0  0  0  0  0  0
   21.2724   14.8938   32.0900 H   0  0  0  0  0  0
   17.6350   14.0214   31.9673 H   0  0  0  0  0  0
   16.4408   15.0917   30.2041 H   0  0  0  0  0  0
   15.5260   16.4406   34.8569 H   0  0  0  0  0  0
   13.0108   17.5086   31.6058 H   0  0  0  0  0  0
   11.5648   18.3672   29.9730 H   0  0  0  0  0  0
   12.5633   17.7844   28.6827 H   0  0  0  0  0  0
    9.3920   17.0218   28.8845 H   0  0  0  0  0  0
    9.9567   13.0161   29.6583 H   0  0  0  0  0  0
   13.2286    6.5626   35.5910 H   0  0  0  0  0  0
   12.9604    7.0378   37.2630 H   0  0  0  0  0  0
   11.9018    7.6423   35.9910 H   0  0  0  0  0  0
   12.4439    9.8736   36.9153 H   0  0  0  0  0  0
  1 35  1  0  0  0
  1 36  1  0  0  0
  1 37  1  0  0  0
  1  2  1  0  0  0
  2  7  1  0  0  0
  2  3  2  0  0  0
  3 38  1  0  0  0
  3  4  1  0  0  0
  4  5  2  0  0  0
  4 32  1  0  0  0
  5 29  1  0  0  0
  5  6  1  0  0  0
  6 39  1  0  0  0
  6  7  2  0  0  0
  7  8  1  0  0  0
  8  9  1  0  0  0
  8 40  1  0  0  0
  8 41  1  0  0  0
  9 10  1  0  0  0
  9 13  1  0  0  0
 10 11  1  0  0  0
 10 42  1  0  0  0
 10 43  1  0  0  0
 11 12  3  0  0  0
 12 44  1  0  0  0
 13 18  1  0  0  0
 13 14  2  0  0  0
 14 15  1  0  0  0
 14 45  1  0  0  0
 15 16  2  0  0  0
 15 46  1  0  0  0
 16 17  1  0  0  0
 16 20  1  0  0  0
 17 18  2  0  0  0
 17 19  1  0  0  0
 18 47  1  0  0  0
 20 21  2  0  0  0
 20 22  1  0  0  0
 22 23  1  0  0  0
 22 48  1  0  0  0
 23 24  1  0  0  0
 23 49  1  0  0  0
 23 50  1  0  0  0
 24 28  1  0  0  0
 24 25  2  0  0  0
 25 26  1  0  0  0
 25 51  1  0  0  0
 26 27  2  0  0  0
 27 28  1  0  0  0
 27 52  1  0  0  0
 29 34  2  0  0  0
 29 30  1  0  0  0
 30 31  2  0  0  0
 31 32  1  0  0  0
 31 33  1  0  0  0
 32 56  1  0  0  0
 33 53  1  0  0  0
 33 54  1  0  0  0
 33 55  1  0  0  0
M  END
> <s_m_entry_id>
41916

> <s_m_entry_name>
ligand_docking-pose.276

> <s_m_Source_Path>
/home/csk/Desktop/cluster/DUD-E-result/tysy

> <s_m_Source_File>
ligand_docking-pose.sdf

> <i_m_Source_File_Index>
276

> <i_lp_mmshare_version>
53161

> <i_f3d_flags>
0

> <r_lp_tautomer_probability>
0.116051

> <s_lp_Force_Field>
OPLS_2005

> <r_lp_Energy>
22.507231

> <b_lp_Chiralities_Consistent>
1

> <s_lp_Variant>
336-2

> <s_i_glide_gridfile>
glide-grid_1syn

> <i_i_glide_lignum>
196

> <i_i_glide_rotatable_bonds>
9

> <r_i_docking_score>
-7.14291639751407

> <r_i_glide_ligand_efficiency>
-0.210085776397473

> <r_i_glide_ligand_efficiency_sa>
-0.680596359697786

> <r_i_glide_ligand_efficiency_ln>
-1.57807058422943

> <r_i_glide_gscore>
-7.14291639751407

> <r_i_glide_lipo>
-3.77890499287757

> <r_i_glide_hbond>
0

> <r_i_glide_metal>
0

> <r_i_glide_rewards>
-1.34767730888065

> <r_i_glide_evdw>
-38.0881958007812

> <r_i_glide_ecoul>
-5.5204005241394

> <r_i_glide_erotb>
0.716135772904118

> <r_i_glide_esite>
0

> <r_i_glide_emodel>
-57.067750072793

> <r_i_glide_energy>
-43.6085963249207

> <r_i_glide_einternal>
9.64651966094971

> <i_i_glide_confnum>
4

> <i_i_glide_posenum>
286

> <r_i_glide_eff_state_penalty>
0

> <s_user_duplicate_titles>
336

> <s_m_subgroup_title>
dock_pv

> <s_m_subgroupid>
dock_pv1

> <b_m_subgroup_collapsed>
0

$$$$
84468
                    3D
 Schrodinger Suite 2021-1.
 68 70  0  0  1  0            999 V2000
   13.7378    8.9527   36.8546 C   0  0  0  0  0  0
   13.0340   10.2174   37.0791 N   0  0  0  0  0  0
   13.7306   11.2281   37.8892 C   0  0  0  0  0  0
   14.6483   12.1054   37.0450 C   0  0  0  0  0  0
   14.3923   13.4654   36.8500 C   0  0  0  0  0  0
   15.2203   14.2559   36.1203 N   0  0  0  0  0  0
   16.3322   13.6736   35.5910 C   0  0  0  0  0  0
   16.5995   12.2852   35.7976 C   0  0  0  0  0  0
   15.7531   11.5045   36.5290 N   0  0  0  0  0  0
   17.7833   11.8000   35.1910 C   0  0  0  0  0  0
   18.5925   12.5743   34.4483 N   0  0  0  0  0  0
   18.2327   13.8632   34.3079 C   0  0  0  0  0  0
   17.1497   14.4687   34.8441 N   0  0  0  0  0  0
   19.0597   14.6280   33.5116 N   0  0  0  0  0  0
   18.1994   10.4792   35.2971 N   0  0  0  0  0  0
   11.9658   10.5976   36.2178 C   0  0  0  0  0  0
   11.6258    9.8282   35.0940 C   0  0  0  0  0  0
   10.5920   10.2105   34.2430 C   0  0  0  0  0  0
    9.8523   11.3684   34.5032 C   0  0  0  0  0  0
   10.1604   12.1248   35.6382 C   0  0  0  0  0  0
   11.2073   11.7500   36.4747 C   0  0  0  0  0  0
    8.7516   11.8280   33.5789 C   0  0  0  0  0  0
    7.7985   12.4816   34.0089 O   0  0  0  0  0  0
    8.9456   11.5890   32.2702 N   0  0  0  0  0  0
    8.1776   12.2120   31.1916 C   0  0  0  0  0  0
    8.8298   13.5161   30.6745 C   0  0  0  0  0  0
   10.1920   13.3008   29.9684 C   0  0  0  0  0  0
   10.9510   14.6026   29.6599 C   0  0  0  0  0  0
   10.3619   15.5724   29.1910 O   0  0  0  0  0  0
   12.2556   14.6280   29.9910 N   0  0  0  0  0  0
   13.1808   15.7749   29.8927 C   0  0  1  0  0  0
   13.2193   16.4868   31.2659 C   0  0  0  0  0  0
   13.9109   17.8656   31.3188 C   0  0  0  0  0  0
   13.8098   18.5011   32.7061 C   0  0  0  0  0  0
   14.5689   18.2279   33.6332 O   0  0  0  0  0  0
   12.8151   19.4280   32.7910 O   0  0  0  0  0  0
   14.5934   15.4083   29.3534 C   0  0  0  0  0  0
   15.4717   16.2281   29.1917 O   0  0  0  0  0  0
   14.7241   14.0778   29.0680 O   0  0  0  0  0  0
   13.0351    8.1274   36.7316 H   0  0  0  0  0  0
   14.3411    9.0107   35.9476 H   0  0  0  0  0  0
   14.3982    8.7040   37.6858 H   0  0  0  0  0  0
   13.0381   11.8383   38.4674 H   0  0  0  0  0  0
   14.3474   10.7426   38.6472 H   0  0  0  0  0  0
   13.5193   13.9443   37.2684 H   0  0  0  0  0  0
   19.7728   14.1264   32.9986 H   0  0  0  0  0  0
   18.7570   15.5524   33.2527 H   0  0  0  0  0  0
   17.6576    9.8278   35.8387 H   0  0  0  0  0  0
   19.0580   10.2225   34.8291 H   0  0  0  0  0  0
   12.1685    8.9308   34.8410 H   0  0  0  0  0  0
   10.3782    9.5884   33.3845 H   0  0  0  0  0  0
    9.6063   13.0255   35.8685 H   0  0  0  0  0  0
   11.4022   12.3757   37.3290 H   0  0  0  0  0  0
    9.6799   10.9543   31.9970 H   0  0  0  0  0  0
    7.1364   12.3884   31.4722 H   0  0  0  0  0  0
    8.1390   11.4757   30.3910 H   0  0  0  0  0  0
    8.9403   14.2012   31.5164 H   0  0  0  0  0  0
    8.1447   14.0182   29.9911 H   0  0  0  0  0  0
   10.0551   12.7570   29.0346 H   0  0  0  0  0  0
   10.8098   12.6684   30.6045 H   0  0  0  0  0  0
   12.6294   13.7804   30.4028 H   0  0  0  0  0  0
   12.7653   16.4901   29.1817 H   0  0  0  0  0  0
   13.6925   15.8281   31.9930 H   0  0  0  0  0  0
   12.1921   16.6225   31.5910 H   0  0  0  0  0  0
   13.4843   18.5429   30.5775 H   0  0  0  0  0  0
   14.9720   17.7805   31.0889 H   0  0  0  0  0  0
   12.8187   19.8843   33.6530 H   0  0  0  0  0  0
   13.9205   13.5667   29.1910 H   0  0  0  0  0  0
  1  2  1  0  0  0
  1 40  1  0  0  0
  1 41  1  0  0  0
  1 42  1  0  0  0
  2  3  1  0  0  0
  2 16  1  0  0  0
  3  4  1  0  0  0
  3 43  1  0  0  0
  3 44  1  0  0  0
  4  9  1  0  0  0
  4  5  2  0  0  0
  5  6  1  0  0  0
  5 45  1  0  0  0
  6  7  2  0  0  0
  7 13  1  0  0  0
  7  8  1  0  0  0
  8  9  2  0  0  0
  8 10  1  0  0  0
 10 11  2  0  0  0
 10 15  1  0  0  0
 11 12  1  0  0  0
 12 13  2  0  0  0
 12 14  1  0  0  0
 14 46  1  0  0  0
 14 47  1  0  0  0
 15 48  1  0  0  0
 15 49  1  0  0  0
 16 21  1  0  0  0
 16 17  2  0  0  0
 17 18  1  0  0  0
 17 50  1  0  0  0
 18 19  2  0  0  0
 18 51  1  0  0  0
 19 20  1  0  0  0
 19 22  1  0  0  0
 20 21  2  0  0  0
 20 52  1  0  0  0
 21 53  1  0  0  0
 22 23  2  0  0  0
 22 24  1  0  0  0
 24 25  1  0  0  0
 24 54  1  0  0  0
 25 26  1  0  0  0
 25 55  1  0  0  0
 25 56  1  0  0  0
 26 27  1  0  0  0
 26 57  1  0  0  0
 26 58  1  0  0  0
 27 28  1  0  0  0
 27 59  1  0  0  0
 27 60  1  0  0  0
 28 29  2  0  0  0
 28 30  1  0  0  0
 30 31  1  0  0  0
 30 61  1  0  0  0
 31 32  1  0  0  0
 31 37  1  0  0  0
 31 62  1  0  0  0
 32 33  1  0  0  0
 32 63  1  0  0  0
 32 64  1  0  0  0
 33 34  1  0  0  0
 33 65  1  0  0  0
 33 66  1  0  0  0
 34 35  2  0  0  0
 34 36  1  0  0  0
 36 67  1  0  0  0
 37 38  2  0  0  0
 37 39  1  0  0  0
 39 68  1  0  0  0
M  END
> <s_m_entry_id>
41919

> <s_m_entry_name>
ligand_docking-pose.279

> <s_m_Source_Path>
/home/csk/Desktop/cluster/DUD-E-result/tysy

> <s_m_Source_File>
ligand_docking-pose.sdf

> <i_m_Source_File_Index>
279

> <i_lp_mmshare_version>
53161

> <i_f3d_flags>
0

> <r_lp_tautomer_probability>
1

> <s_lp_Force_Field>
OPLS_2005

> <r_lp_Energy>
28.005028

> <b_lp_Chiralities_Consistent>
1

> <s_lp_Variant>
84468-2

> <s_i_glide_gridfile>
glide-grid_1syn

> <i_i_glide_lignum>
933

> <i_i_glide_rotatable_bonds>
17

> <r_i_docking_score>
-7.13359002536861

> <r_i_glide_ligand_efficiency>
-0.182912564753041

> <r_i_glide_ligand_efficiency_sa>
-0.620295181904087

> <r_i_glide_ligand_efficiency_ln>
-1.52964420043399

> <r_i_glide_gscore>
-7.13359002536861

> <r_i_glide_lipo>
-1.97686379550189

> <r_i_glide_hbond>
-0.273624047764586

> <r_i_glide_metal>
0

> <r_i_glide_rewards>
-1.39752613466102

> <r_i_glide_evdw>
-56.9977264404297

> <r_i_glide_ecoul>
-10.5781726837158

> <r_i_glide_erotb>
1.06502647387164

> <r_i_glide_esite>
-0.113990296733911

> <r_i_glide_emodel>
-91.8644335801362

> <r_i_glide_energy>
-67.5758991241455

> <r_i_glide_einternal>
9.54500579833984

> <i_i_glide_confnum>
63

> <i_i_glide_posenum>
142

> <r_i_glide_eff_state_penalty>
0

> <s_user_duplicate_titles>
84468

> <s_m_subgroup_title>
dock_pv

> <s_m_subgroupid>
dock_pv1

> <b_m_subgroup_collapsed>
0

$$$$
294170
                    3D
 Schrodinger Suite 2021-1.
 57 59  0  0  1  0            999 V2000
   20.5912   14.5216   34.4834 C   0  0  0  0  0  0
   19.2561   15.2752   34.4167 C   0  0  0  0  0  0
   18.1842   14.4935   33.8167 N   0  0  0  0  0  0
   18.2119   14.2262   32.3703 C   0  0  0  0  0  0
   16.9808   14.7995   31.6584 C   0  0  0  0  0  0
   16.5923   14.2869   30.4155 C   0  0  0  0  0  0
   15.4976   14.8184   29.7246 C   0  0  0  0  0  0
   14.7630   15.8626   30.2880 C   0  0  0  0  0  0
   15.1301   16.3711   31.5474 C   0  0  0  0  0  0
   16.2393   15.8484   32.2177 C   0  0  0  0  0  0
   14.3091   17.4836   32.1129 C   0  0  0  0  0  0
   13.3024   17.9120   31.2843 N   0  0  0  0  0  0
   12.9913   17.3718   30.0604 C   0  0  0  0  0  0
   13.6590   16.3816   29.5744 N   0  0  0  0  0  0
   14.4663   18.2261   33.5910 S   0  0  0  0  0  0
   17.5563   13.5540   34.6527 C   0  0  0  0  0  0
   17.9315   12.2101   34.6420 C   0  0  0  0  0  0
   17.2242   11.2811   35.3990 C   0  0  0  0  0  0
   16.1252   11.6811   36.1695 C   0  0  0  0  0  0
   15.7926   13.0456   36.2211 C   0  0  0  0  0  0
   16.5159   13.9759   35.4792 C   0  0  0  0  0  0
   15.3091   10.6385   36.8990 C   0  0  0  0  0  0
   15.2866    9.4689   36.5118 O   0  0  0  0  0  0
   14.6462   11.0680   37.9908 N   0  0  0  0  0  0
   13.8087   10.2823   38.9110 C   0  0  2  0  0  0
   13.3269   11.2012   40.0704 C   0  0  0  0  0  0
   12.5093   12.4462   39.6528 C   0  0  0  0  0  0
   12.3522   13.4231   40.8193 C   0  0  0  0  0  0
   11.3934   13.4283   41.5892 O   0  0  0  0  0  0
   13.4238   14.2554   40.9454 O   0  0  0  0  0  0
   14.5139    9.0285   39.4913 C   0  0  0  0  0  0
   15.7171    8.9013   39.5907 O   0  0  0  0  0  0
   13.5803    8.1192   39.8996 O   0  0  0  0  0  0
   21.2659   15.0067   35.1910 H   0  0  0  0  0  0
   20.4705   13.4846   34.7912 H   0  0  0  0  0  0
   21.0750   14.5007   33.5061 H   0  0  0  0  0  0
   19.3743   16.2041   33.8576 H   0  0  0  0  0  0
   18.9488   15.5868   35.4147 H   0  0  0  0  0  0
   19.1028   14.6689   31.9206 H   0  0  0  0  0  0
   18.2788   13.1555   32.1692 H   0  0  0  0  0  0
   17.1408   13.4610   29.9910 H   0  0  0  0  0  0
   15.2151   14.4095   28.7648 H   0  0  0  0  0  0
   16.5367   16.2591   33.1711 H   0  0  0  0  0  0
   12.1525   17.8084   29.5227 H   0  0  0  0  0  0
   12.7678   18.6812   31.6614 H   0  0  0  0  0  0
   18.7545   11.8777   34.0229 H   0  0  0  0  0  0
   17.5182   10.2414   35.3495 H   0  0  0  0  0  0
   14.9530   13.4023   36.7997 H   0  0  0  0  0  0
   16.2291   15.0174   35.5023 H   0  0  0  0  0  0
   14.7967   12.0276   38.2540 H   0  0  0  0  0  0
   12.9488    9.9472   38.3269 H   0  0  0  0  0  0
   14.1920   11.5223   40.6534 H   0  0  0  0  0  0
   12.7080   10.6241   40.7608 H   0  0  0  0  0  0
   11.5192   12.1414   39.3100 H   0  0  0  0  0  0
   12.9685   12.9725   38.8147 H   0  0  0  0  0  0
   14.0768   14.1241   40.2546 H   0  0  0  0  0  0
   12.6811    8.3747   39.6836 H   0  0  0  0  0  0
  1  2  1  0  0  0
  1 34  1  0  0  0
  1 35  1  0  0  0
  1 36  1  0  0  0
  2  3  1  0  0  0
  2 37  1  0  0  0
  2 38  1  0  0  0
  3  4  1  0  0  0
  3 16  1  0  0  0
  4 39  1  0  0  0
  4 40  1  0  0  0
  4  5  1  0  0  0
  5 10  2  0  0  0
  5  6  1  0  0  0
  6 41  1  0  0  0
  6  7  2  0  0  0
  7 42  1  0  0  0
  7  8  1  0  0  0
  8  9  2  0  0  0
  8 14  1  0  0  0
  9 11  1  0  0  0
  9 10  1  0  0  0
 10 43  1  0  0  0
 11 15  2  0  0  0
 11 12  1  0  0  0
 12 13  1  0  0  0
 12 45  1  0  0  0
 13 14  2  0  0  0
 13 44  1  0  0  0
 16 21  1  0  0  0
 16 17  2  0  0  0
 17 18  1  0  0  0
 17 46  1  0  0  0
 18 19  2  0  0  0
 18 47  1  0  0  0
 19 20  1  0  0  0
 19 22  1  0  0  0
 20 21  2  0  0  0
 20 48  1  0  0  0
 21 49  1  0  0  0
 22 23  2  0  0  0
 22 24  1  0  0  0
 24 25  1  0  0  0
 24 50  1  0  0  0
 25 26  1  0  0  0
 25 31  1  0  0  0
 25 51  1  0  0  0
 26 27  1  0  0  0
 26 52  1  0  0  0
 26 53  1  0  0  0
 27 28  1  0  0  0
 27 54  1  0  0  0
 27 55  1  0  0  0
 28 29  2  0  0  0
 28 30  1  0  0  0
 30 56  1  0  0  0
 31 32  2  0  0  0
 31 33  1  0  0  0
 33 57  1  0  0  0
M  END
> <s_m_entry_id>
41921

> <s_m_entry_name>
ligand_docking-pose.281

> <s_m_Source_Path>
/home/csk/Desktop/cluster/DUD-E-result/tysy

> <s_m_Source_File>
ligand_docking-pose.sdf

> <i_m_Source_File_Index>
281

> <i_lp_mmshare_version>
53161

> <i_f3d_flags>
0

> <r_lp_tautomer_probability>
0.883938

> <s_lp_Force_Field>
OPLS_2005

> <r_lp_Energy>
31.763068

> <b_lp_Chiralities_Consistent>
1

> <s_lp_Variant>
294170-1

> <s_i_glide_gridfile>
glide-grid_1syn

> <i_i_glide_lignum>
883

> <i_i_glide_rotatable_bonds>
13

> <r_i_docking_score>
-7.12849835777421

> <r_i_glide_ligand_efficiency>
-0.216015101750734

> <r_i_glide_ligand_efficiency_sa>
-0.692875853855471

> <r_i_glide_ligand_efficiency_ln>
-1.58534112537984

> <r_i_glide_gscore>
-7.12849835777421

> <r_i_glide_lipo>
-3.3597641020403

> <r_i_glide_hbond>
-0.323588698239341

> <r_i_glide_metal>
0

> <r_i_glide_rewards>
0.177099952227206

> <r_i_glide_evdw>
-58.213191986084

> <r_i_glide_ecoul>
-10.624044418335

> <r_i_glide_erotb>
0.91977431913299

> <r_i_glide_esite>
-0.0377535668003171

> <r_i_glide_emodel>
-89.1385342920854

> <r_i_glide_energy>
-68.8372364044189

> <r_i_glide_einternal>
11.7482967376709

> <i_i_glide_confnum>
258

> <i_i_glide_posenum>
124

> <r_i_glide_eff_state_penalty>
0

> <s_user_duplicate_titles>
294170

> <s_m_subgroup_title>
dock_pv

> <s_m_subgroupid>
dock_pv1

> <b_m_subgroup_collapsed>
0

$$$$
184532
                    3D
 Schrodinger Suite 2021-1.
 75 77  0  0  1  0            999 V2000
   13.1744    4.4188   42.7102 C   0  0  0  0  0  0
   12.4417    5.2490   41.6852 C   0  0  0  0  0  0
   12.0906    4.7498   40.5594 N   0  0  0  0  0  0
   11.4363    5.5610   39.6161 C   0  0  0  0  0  0
   11.0721    4.9953   38.3987 C   0  0  0  0  0  0
   10.4488    5.7814   37.4285 C   0  0  0  0  0  0
   10.1881    7.1373   37.6642 C   0  0  0  0  0  0
   10.5254    7.7013   38.9040 C   0  0  0  0  0  0
   11.1584    6.9088   39.8674 C   0  0  0  0  0  0
   11.5809    7.4741   41.2038 C   0  0  0  0  0  0
   12.1908    6.5555   41.9898 N   0  0  0  0  0  0
   11.4220    8.6279   41.5917 O   0  0  0  0  0  0
    9.5596    7.9767   36.5457 C   0  0  0  0  0  0
   10.0660    9.3588   36.4145 N   0  0  0  0  0  0
    9.1515   10.2965   35.7383 C   0  0  0  0  0  0
    9.2140   10.2238   34.2627 C   0  0  0  0  0  0
    9.3019   10.1464   33.0472 C   0  0  0  0  0  0
   11.4625    9.6438   36.3489 C   0  0  0  0  0  0
   11.9227   10.9647   36.4658 C   0  0  0  0  0  0
   13.2826   11.2582   36.4461 C   0  0  0  0  0  0
   14.2174   10.2265   36.3289 C   0  0  0  0  0  0
   13.7776    8.9097   36.1968 C   0  0  0  0  0  0
   12.4174    8.6297   36.1858 C   0  0  0  0  0  0
   15.6884   10.5104   36.3719 C   0  0  0  0  0  0
   16.4220    9.8281   37.0821 O   0  0  0  0  0  0
   16.1056   11.5226   35.5933 N   0  0  0  0  0  0
   17.4813   12.0218   35.4537 C   0  0  2  0  0  0
   17.5413   13.3260   34.6106 C   0  0  0  0  0  0
   16.6639   14.4838   35.1584 C   0  0  0  0  0  0
   16.3121   15.5332   34.0962 C   0  0  0  0  0  0
   17.2145   16.1898   33.5815 O   0  0  0  0  0  0
   15.0047   15.7071   33.8268 N   0  0  0  0  0  0
   14.3634   16.6931   32.9400 C   0  0  2  0  0  0
   14.9681   16.7922   31.5021 C   0  0  0  0  0  0
   14.1926   17.7629   30.5835 C   0  0  0  0  0  0
   15.0583   15.4277   30.8011 C   0  0  0  0  0  0
   14.3854   18.0987   33.5764 C   0  0  0  0  0  0
   15.3904   18.6323   33.9912 O   0  0  0  0  0  0
   13.1277   18.6280   33.5909 O   0  0  0  0  0  0
   18.5061   10.9747   34.9455 C   0  0  0  0  0  0
   18.2164    9.9340   34.3910 O   0  0  0  0  0  0
   19.7692   11.4291   35.1911 O   0  0  0  0  0  0
   17.7919   12.2823   36.4581 H   0  0  0  0  0  0
   13.3255   16.3708   32.8401 H   0  0  0  0  0  0
   13.1919    3.3645   42.4337 H   0  0  0  0  0  0
   14.2061    4.7547   42.8060 H   0  0  0  0  0  0
   12.7006    4.4980   43.6884 H   0  0  0  0  0  0
   11.2869    3.9568   38.2028 H   0  0  0  0  0  0
   10.1940    5.3326   36.4794 H   0  0  0  0  0  0
   10.3232    8.7476   39.0925 H   0  0  0  0  0  0
   12.5028    6.9122   42.8802 H   0  0  0  0  0  0
    9.7094    7.4741   35.5914 H   0  0  0  0  0  0
    8.4808    7.9890   36.7106 H   0  0  0  0  0  0
    8.1211   10.0828   36.0259 H   0  0  0  0  0  0
    9.3091   11.3298   36.0423 H   0  0  0  0  0  0
    9.3922   10.0641   31.9850 H   0  0  0  0  0  0
   11.2391   11.7849   36.6068 H   0  0  0  0  0  0
   13.5987   12.2850   36.5613 H   0  0  0  0  0  0
   14.4841    8.0980   36.0939 H   0  0  0  0  0  0
   12.1232    7.6036   36.0407 H   0  0  0  0  0  0
   15.4272   11.9526   34.9863 H   0  0  0  0  0  0
   18.5724   13.6858   34.5732 H   0  0  0  0  0  0
   17.2787   13.1006   33.5744 H   0  0  0  0  0  0
   15.7510   14.1092   35.6225 H   0  0  0  0  0  0
   17.1984   14.9973   35.9589 H   0  0  0  0  0  0
   14.3488   15.1258   34.3245 H   0  0  0  0  0  0
   15.9833   17.1778   31.5881 H   0  0  0  0  0  0
   13.1544   17.4507   30.4687 H   0  0  0  0  0  0
   14.1806   18.7808   30.9685 H   0  0  0  0  0  0
   14.6328   17.8055   29.5875 H   0  0  0  0  0  0
   14.0739   14.9681   30.7219 H   0  0  0  0  0  0
   15.4569   15.5300   29.7915 H   0  0  0  0  0  0
   15.7233   14.7465   31.3314 H   0  0  0  0  0  0
   13.0979   19.4891   34.0464 H   0  0  0  0  0  0
   20.4213   11.0261   34.6018 H   0  0  0  0  0  0
  1 45  1  0  0  0
  1 46  1  0  0  0
  1 47  1  0  0  0
  1  2  1  0  0  0
  2  3  2  0  0  0
  2 11  1  0  0  0
  3  4  1  0  0  0
  4  9  2  0  0  0
  4  5  1  0  0  0
  5  6  2  0  0  0
  5 48  1  0  0  0
  6  7  1  0  0  0
  6 49  1  0  0  0
  7  8  2  0  0  0
  7 13  1  0  0  0
  8  9  1  0  0  0
  8 50  1  0  0  0
  9 10  1  0  0  0
 10 12  2  0  0  0
 10 11  1  0  0  0
 11 51  1  0  0  0
 13 14  1  0  0  0
 13 52  1  0  0  0
 13 53  1  0  0  0
 14 15  1  0  0  0
 14 18  1  0  0  0
 15 16  1  0  0  0
 15 54  1  0  0  0
 15 55  1  0  0  0
 16 17  3  0  0  0
 17 56  1  0  0  0
 18 23  1  0  0  0
 18 19  2  0  0  0
 19 20  1  0  0  0
 19 57  1  0  0  0
 20 21  2  0  0  0
 20 58  1  0  0  0
 21 22  1  0  0  0
 21 24  1  0  0  0
 22 23  2  0  0  0
 22 59  1  0  0  0
 23 60  1  0  0  0
 24 25  2  0  0  0
 24 26  1  0  0  0
 26 27  1  0  0  0
 26 61  1  0  0  0
 27 43  1  0  0  0
 27 28  1  0  0  0
 27 40  1  0  0  0
 28 29  1  0  0  0
 28 62  1  0  0  0
 28 63  1  0  0  0
 29 30  1  0  0  0
 29 64  1  0  0  0
 29 65  1  0  0  0
 30 31  2  0  0  0
 30 32  1  0  0  0
 32 33  1  0  0  0
 32 66  1  0  0  0
 33 44  1  0  0  0
 33 34  1  0  0  0
 33 37  1  0  0  0
 34 35  1  0  0  0
 34 36  1  0  0  0
 34 67  1  0  0  0
 35 68  1  0  0  0
 35 69  1  0  0  0
 35 70  1  0  0  0
 36 71  1  0  0  0
 36 72  1  0  0  0
 36 73  1  0  0  0
 37 38  2  0  0  0
 37 39  1  0  0  0
 39 74  1  0  0  0
 40 41  2  0  0  0
 40 42  1  0  0  0
 42 75  1  0  0  0
M  END
> <s_m_entry_id>
41922

> <s_m_entry_name>
ligand_docking-pose.282

> <s_m_Source_Path>
/home/csk/Desktop/cluster/DUD-E-result/tysy

> <s_m_Source_File>
ligand_docking-pose.sdf

> <i_m_Source_File_Index>
282

> <i_lp_mmshare_version>
53161

> <i_f3d_flags>
0

> <r_lp_tautomer_probability>
0.883938

> <s_lp_Force_Field>
OPLS_2005

> <r_lp_Energy>
19.881055

> <b_lp_Chiralities_Consistent>
1

> <s_lp_Variant>
184532-1

> <s_i_glide_gridfile>
glide-grid_1syn

> <i_i_glide_lignum>
584

> <i_i_glide_rotatable_bonds>
18

> <r_i_docking_score>
-7.09987902280765

> <r_i_glide_ligand_efficiency>
-0.169044738638277

> <r_i_glide_ligand_efficiency_sa>
-0.587604014952428

> <r_i_glide_ligand_efficiency_ln>
-1.49860154777534

> <r_i_glide_gscore>
-7.09987902280765

> <r_i_glide_lipo>
-1.94329180117814

> <r_i_glide_hbond>
-0.324125053771832

> <r_i_glide_metal>
0

> <r_i_glide_rewards>
-0.860933398664698

> <r_i_glide_evdw>
-48.8906135559082

> <r_i_glide_ecoul>
-15.673565864563

> <r_i_glide_erotb>
0.849724355777191

> <r_i_glide_esite>
-0.0256875674903122

> <r_i_glide_emodel>
-87.4388689346905

> <r_i_glide_energy>
-64.5641794204712

> <r_i_glide_einternal>
8.45545959472656

> <i_i_glide_confnum>
41

> <i_i_glide_posenum>
104

> <r_i_glide_eff_state_penalty>
0

> <s_user_duplicate_titles>
184532

> <s_m_subgroup_title>
dock_pv

> <s_m_subgroupid>
dock_pv1

> <b_m_subgroup_collapsed>
0

$$$$
268268
                    3D
 Schrodinger Suite 2021-1.
 63 66  0  0  1  0            999 V2000
   18.1504   13.7697   31.9560 C   0  0  0  0  0  0
   17.0796   14.7410   32.4262 C   0  0  0  0  0  0
   16.3178   15.4239   31.4620 C   0  0  0  0  0  0
   15.3509   16.3506   31.8507 C   0  0  0  0  0  0
   15.1578   16.5957   33.2090 C   0  0  0  0  0  0
   15.9010   15.9288   34.1730 C   0  0  0  0  0  0
   16.8503   14.9779   33.7995 C   0  0  0  0  0  0
   17.6258   14.2841   34.9262 C   0  0  0  0  0  0
   17.3918   12.8279   35.0441 N   0  0  0  0  0  0
   18.6496   12.0595   35.0084 C   0  0  0  0  0  0
   18.5927   10.7140   34.4173 C   0  0  0  0  0  0
   18.6965    9.5784   33.9902 C   0  0  0  0  0  0
   16.2837   12.3657   35.8314 C   0  0  0  0  0  0
   15.1250   13.1399   35.9900 C   0  0  0  0  0  0
   14.0344   12.7069   36.7364 C   0  0  0  0  0  0
   14.0525   11.4605   37.3744 C   0  0  0  0  0  0
   15.2013   10.6684   37.2383 C   0  0  0  0  0  0
   16.2810   11.1180   36.4807 C   0  0  0  0  0  0
   15.3110    9.4653   37.8529 F   0  0  0  0  0  0
   12.8584   10.9825   38.1656 C   0  0  0  0  0  0
   12.5952    9.7855   38.2686 O   0  0  0  0  0  0
   12.0908   11.9457   38.7096 N   0  0  0  0  0  0
   10.7552   11.7464   39.2733 C   0  0  0  0  0  0
    9.6574   12.0797   38.2692 C   0  0  0  0  0  0
    8.7478   13.1067   38.5341 C   0  0  0  0  0  0
    7.7600   13.4243   37.6040 C   0  0  0  0  0  0
    7.6756   12.7197   36.4041 C   0  0  0  0  0  0
    8.5762   11.6830   36.1161 C   0  0  0  0  0  0
    9.5564   11.3656   37.0683 C   0  0  0  0  0  0
    8.5019   10.9462   34.8307 N   0  3  0  0  0  0
    9.2909   10.0260   34.6356 O   0  5  0  0  0  0
    7.6543   11.2869   34.0128 O   0  0  0  0  0  0
   14.0994   17.5772   33.6207 C   0  0  0  0  0  0
   13.4849   18.1429   32.5594 N   0  0  0  0  0  0
   13.7017   17.8805   31.2298 C   0  0  0  0  0  0
   14.5891   17.0172   30.8702 N   0  0  0  0  0  0
   12.8144   18.5690   30.1855 C   0  0  0  0  0  0
   12.1923   19.7368   30.7117 O   0  0  0  0  0  0
   13.7928   17.8279   34.7793 O   0  0  0  0  0  0
   19.0958   13.9611   32.4650 H   0  0  0  0  0  0
   17.8562   12.7432   32.1738 H   0  0  0  0  0  0
   18.3451   13.8548   30.8864 H   0  0  0  0  0  0
   16.4728   15.2382   30.4101 H   0  0  0  0  0  0
   15.7317   16.1419   35.2210 H   0  0  0  0  0  0
   18.6811   14.5167   34.7770 H   0  0  0  0  0  0
   17.3881   14.7513   35.8842 H   0  0  0  0  0  0
   19.4256   12.5792   34.4429 H   0  0  0  0  0  0
   19.0271   11.9380   36.0183 H   0  0  0  0  0  0
   18.9786    8.6302   33.6020 H   0  0  0  0  0  0
   15.0170   14.0888   35.5091 H   0  0  0  0  0  0
   13.1680   13.3526   36.7834 H   0  0  0  0  0  0
   17.1353   10.4670   36.4581 H   0  0  0  0  0  0
   12.3986   12.8996   38.6091 H   0  0  0  0  0  0
   10.6104   10.7116   39.5914 H   0  0  0  0  0  0
   10.6564   12.3637   40.1672 H   0  0  0  0  0  0
    8.8091   13.6731   39.4525 H   0  0  0  0  0  0
    7.0625   14.2232   37.8089 H   0  0  0  0  0  0
    6.9093   12.9908   35.6927 H   0  0  0  0  0  0
   10.2612   10.5693   36.8688 H   0  0  0  0  0  0
   13.3991   18.8488   29.3080 H   0  0  0  0  0  0
   12.0407   17.8778   29.8483 H   0  0  0  0  0  0
   11.2983   19.8247   30.3441 H   0  0  0  0  0  0
   12.8042   18.8500   32.7930 H   0  0  0  0  0  0
  1 40  1  0  0  0
  1 41  1  0  0  0
  1 42  1  0  0  0
  1  2  1  0  0  0
  2  7  1  0  0  0
  2  3  2  0  0  0
  3 43  1  0  0  0
  3  4  1  0  0  0
  4  5  2  0  0  0
  4 36  1  0  0  0
  5 33  1  0  0  0
  5  6  1  0  0  0
  6 44  1  0  0  0
  6  7  2  0  0  0
  7  8  1  0  0  0
  8  9  1  0  0  0
  8 45  1  0  0  0
  8 46  1  0  0  0
  9 10  1  0  0  0
  9 13  1  0  0  0
 10 11  1  0  0  0
 10 47  1  0  0  0
 10 48  1  0  0  0
 11 12  3  0  0  0
 12 49  1  0  0  0
 13 18  1  0  0  0
 13 14  2  0  0  0
 14 15  1  0  0  0
 14 50  1  0  0  0
 15 16  2  0  0  0
 15 51  1  0  0  0
 16 17  1  0  0  0
 16 20  1  0  0  0
 17 18  2  0  0  0
 17 19  1  0  0  0
 18 52  1  0  0  0
 20 21  2  0  0  0
 20 22  1  0  0  0
 22 23  1  0  0  0
 22 53  1  0  0  0
 23 24  1  0  0  0
 23 54  1  0  0  0
 23 55  1  0  0  0
 24 29  1  0  0  0
 24 25  2  0  0  0
 25 26  1  0  0  0
 25 56  1  0  0  0
 26 27  2  0  0  0
 26 57  1  0  0  0
 27 28  1  0  0  0
 27 58  1  0  0  0
 28 29  2  0  0  0
 28 30  1  0  0  0
 29 59  1  0  0  0
 30 31  1  0  0  0
 30 32  2  0  0  0
 33 39  2  0  0  0
 33 34  1  0  0  0
 34 35  1  0  0  0
 34 63  1  0  0  0
 35 36  2  0  0  0
 35 37  1  0  0  0
 37 38  1  0  0  0
 37 60  1  0  0  0
 37 61  1  0  0  0
 38 62  1  0  0  0
M  CHG  2  30   1  31  -1
M  END
> <s_m_entry_id>
41925

> <s_m_entry_name>
ligand_docking-pose.285

> <s_m_Source_Path>
/home/csk/Desktop/cluster/DUD-E-result/tysy

> <s_m_Source_File>
ligand_docking-pose.sdf

> <i_m_Source_File_Index>
285

> <i_lp_mmshare_version>
53161

> <i_f3d_flags>
0

> <r_lp_tautomer_probability>
0.883938

> <s_lp_Force_Field>
OPLS_2005

> <r_lp_Energy>
35.750046

> <b_lp_Chiralities_Consistent>
1

> <s_lp_Variant>
268268-1

> <s_i_glide_gridfile>
glide-grid_1syn

> <i_i_glide_lignum>
191

> <i_i_glide_rotatable_bonds>
12

> <r_i_docking_score>
-7.08512124019237

> <r_i_glide_ligand_efficiency>
-0.181669775389548

> <r_i_glide_ligand_efficiency_sa>
-0.616080620398499

> <r_i_glide_ligand_efficiency_ln>
-1.51925111702392

> <r_i_glide_gscore>
-7.08512124019237

> <r_i_glide_lipo>
-3.41235103145452

> <r_i_glide_hbond>
-0.32

> <r_i_glide_metal>
0

> <r_i_glide_rewards>
-0.550342956367883

> <r_i_glide_evdw>
-55.3774604797363

> <r_i_glide_ecoul>
-4.9902172088623

> <r_i_glide_erotb>
0.73498013117834

> <r_i_glide_esite>
-0.0200017782321406

> <r_i_glide_emodel>
-80.5361488772364

> <r_i_glide_energy>
-60.3676776885986

> <r_i_glide_einternal>
6.36787939071655

> <i_i_glide_confnum>
41

> <i_i_glide_posenum>
215

> <r_i_glide_eff_state_penalty>
0

> <s_user_duplicate_titles>
268268

> <s_m_subgroup_title>
dock_pv

> <s_m_subgroupid>
dock_pv1

> <b_m_subgroup_collapsed>
0

$$$$
534
                    3D
 Schrodinger Suite 2021-1.
 65 67  0  0  1  0            999 V2000
   13.3072   10.4434   41.0675 C   0  0  0  0  0  0
   13.3921    9.6234   39.7864 C   0  0  0  0  0  0
   12.9189    8.3055   39.8281 C   0  0  0  0  0  0
   12.9529    7.5068   38.6908 C   0  0  0  0  0  0
   13.4723    8.0231   37.5030 C   0  0  0  0  0  0
   13.9531    9.3303   37.4373 C   0  0  0  0  0  0
   13.9150   10.1402   38.5778 C   0  0  0  0  0  0
   14.4771   11.5580   38.4464 C   0  0  0  0  0  0
   13.6465   12.4485   37.6184 N   0  0  0  0  0  0
   12.2322   12.5713   38.0268 C   0  0  0  0  0  0
   12.0340   13.2906   39.3038 C   0  0  0  0  0  0
   11.8803   13.8259   40.3912 C   0  0  0  0  0  0
   14.2504   13.4012   36.7338 C   0  0  0  0  0  0
   15.6177   13.3779   36.3900 C   0  0  0  0  0  0
   16.1562   14.2520   35.4412 C   0  0  0  0  0  0
   15.3378   15.1741   34.7810 C   0  0  0  0  0  0
   14.0063   15.2916   35.1927 C   0  0  0  0  0  0
   13.4792   14.4039   36.1265 C   0  0  0  0  0  0
   13.1827   16.2277   34.6655 F   0  0  0  0  0  0
   15.8593   15.9460   33.5945 C   0  0  0  0  0  0
   16.9990   16.4076   33.5724 O   0  0  0  0  0  0
   14.9931   16.0042   32.5669 N   0  0  0  0  0  0
   15.1770   16.5421   31.2092 C   0  0  1  0  0  0
   16.0223   15.6086   30.2796 C   0  0  0  0  0  0
   16.1915   15.8270   29.1030 O   0  0  0  0  0  0
   16.5904   14.5511   30.9293 O   0  0  0  0  0  0
   13.7992   17.0415   30.6015 C   0  0  0  0  0  0
   13.9080   17.7556   29.2268 C   0  0  0  0  0  0
   13.1532   18.0734   31.5657 C   0  0  0  0  0  0
   12.8107   15.8555   30.4497 C   0  0  0  0  0  0
   13.5013    7.1220   36.2946 C   0  0  0  0  0  0
   12.9998    5.8895   36.5553 N   0  0  0  0  0  0
   12.4796    5.4454   37.7374 C   0  0  0  0  0  0
   12.4559    6.1948   38.7776 N   0  0  0  0  0  0
   11.9527    4.0304   37.7998 C   0  0  0  0  0  0
   13.9395    7.4279   35.1909 O   0  0  0  0  0  0
   15.7920   17.4278   31.3342 H   0  0  0  0  0  0
   13.2247    9.8105   41.9481 H   0  0  0  0  0  0
   14.1922   11.0510   41.2255 H   0  0  0  0  0  0
   12.4372   11.0920   41.0413 H   0  0  0  0  0  0
   12.5119    7.8923   40.7372 H   0  0  0  0  0  0
   14.3480    9.7291   36.5108 H   0  0  0  0  0  0
   15.4829   11.4284   38.0627 H   0  0  0  0  0  0
   14.5887   12.0431   39.4109 H   0  0  0  0  0  0
   11.5793   12.9665   37.2520 H   0  0  0  0  0  0
   11.8267   11.5722   38.1808 H   0  0  0  0  0  0
   11.7455   14.3152   41.3281 H   0  0  0  0  0  0
   16.3095   12.6672   36.8067 H   0  0  0  0  0  0
   17.1981   14.1516   35.1709 H   0  0  0  0  0  0
   12.4370   14.5376   36.3577 H   0  0  0  0  0  0
   14.0862   15.5954   32.7224 H   0  0  0  0  0  0
   17.1244   14.0295   30.3258 H   0  0  0  0  0  0
   12.9427   18.1576   28.9141 H   0  0  0  0  0  0
   14.2121   17.0888   28.4214 H   0  0  0  0  0  0
   14.5916   18.6020   29.2561 H   0  0  0  0  0  0
   12.9210   17.6490   32.5400 H   0  0  0  0  0  0
   13.8084   18.9298   31.7305 H   0  0  0  0  0  0
   12.2155   18.4677   31.1700 H   0  0  0  0  0  0
   12.5234   15.4380   31.4136 H   0  0  0  0  0  0
   11.8856   16.1674   29.9621 H   0  0  0  0  0  0
   13.2352   15.0445   29.8558 H   0  0  0  0  0  0
   12.6538    3.3822   38.3286 H   0  0  0  0  0  0
   10.9957    3.9944   38.3260 H   0  0  0  0  0  0
   11.7920    3.6093   36.8031 H   0  0  0  0  0  0
   13.0476    5.2369   35.7860 H   0  0  0  0  0  0
  1 38  1  0  0  0
  1 39  1  0  0  0
  1 40  1  0  0  0
  1  2  1  0  0  0
  2  7  1  0  0  0
  2  3  2  0  0  0
  3 41  1  0  0  0
  3  4  1  0  0  0
  4  5  2  0  0  0
  4 34  1  0  0  0
  5 31  1  0  0  0
  5  6  1  0  0  0
  6 42  1  0  0  0
  6  7  2  0  0  0
  7  8  1  0  0  0
  8  9  1  0  0  0
  8 43  1  0  0  0
  8 44  1  0  0  0
  9 10  1  0  0  0
  9 13  1  0  0  0
 10 11  1  0  0  0
 10 45  1  0  0  0
 10 46  1  0  0  0
 11 12  3  0  0  0
 12 47  1  0  0  0
 13 18  1  0  0  0
 13 14  2  0  0  0
 14 15  1  0  0  0
 14 48  1  0  0  0
 15 16  2  0  0  0
 15 49  1  0  0  0
 16 17  1  0  0  0
 16 20  1  0  0  0
 17 18  2  0  0  0
 17 19  1  0  0  0
 18 50  1  0  0  0
 20 21  2  0  0  0
 20 22  1  0  0  0
 22 23  1  0  0  0
 22 51  1  0  0  0
 23 37  1  0  0  0
 23 24  1  0  0  0
 23 27  1  0  0  0
 24 25  2  0  0  0
 24 26  1  0  0  0
 26 52  1  0  0  0
 27 28  1  0  0  0
 27 29  1  0  0  0
 27 30  1  0  0  0
 28 53  1  0  0  0
 28 54  1  0  0  0
 28 55  1  0  0  0
 29 56  1  0  0  0
 29 57  1  0  0  0
 29 58  1  0  0  0
 30 59  1  0  0  0
 30 60  1  0  0  0
 30 61  1  0  0  0
 31 36  2  0  0  0
 31 32  1  0  0  0
 32 33  1  0  0  0
 32 65  1  0  0  0
 33 34  2  0  0  0
 33 35  1  0  0  0
 35 62  1  0  0  0
 35 63  1  0  0  0
 35 64  1  0  0  0
M  END
> <s_m_entry_id>
41926

> <s_m_entry_name>
ligand_docking-pose.286

> <s_m_Source_Path>
/home/csk/Desktop/cluster/DUD-E-result/tysy

> <s_m_Source_File>
ligand_docking-pose.sdf

> <i_m_Source_File_Index>
286

> <i_lp_mmshare_version>
53161

> <i_f3d_flags>
0

> <r_lp_tautomer_probability>
0.883938

> <s_lp_Force_Field>
OPLS_2005

> <r_lp_Energy>
29.020552

> <b_lp_Chiralities_Consistent>
1

> <s_lp_Variant>
534-1

> <s_i_glide_gridfile>
glide-grid_1syn

> <i_i_glide_lignum>
313

> <i_i_glide_rotatable_bonds>
11

> <r_i_docking_score>
-7.07228235816344

> <r_i_glide_ligand_efficiency>
-0.196452287726762

> <r_i_glide_ligand_efficiency_sa>
-0.648671161177842

> <r_i_glide_ligand_efficiency_ln>
-1.54298093956292

> <r_i_glide_gscore>
-7.07228235816344

> <r_i_glide_lipo>
-2.63751391610517

> <r_i_glide_hbond>
-0.566258661704116

> <r_i_glide_metal>
0

> <r_i_glide_rewards>
-1.29171375250646

> <r_i_glide_evdw>
-45.0897903442383

> <r_i_glide_ecoul>
-6.86863708496094

> <r_i_glide_erotb>
0.755520486389219

> <r_i_glide_esite>
-0.047531434280856

> <r_i_glide_emodel>
-70.9808188728217

> <r_i_glide_energy>
-51.9584274291992

> <r_i_glide_einternal>
7.80817985534668

> <i_i_glide_confnum>
13

> <i_i_glide_posenum>
270

> <r_i_glide_eff_state_penalty>
0

> <s_user_duplicate_titles>
534

> <s_m_subgroup_title>
dock_pv

> <s_m_subgroupid>
dock_pv1

> <b_m_subgroup_collapsed>
0

$$$$
523
                    3D
 Schrodinger Suite 2021-1.
 59 61  0  0  1  0            999 V2000
   10.1854   13.4718   37.0368 C   0  0  0  0  0  0
    9.9913   12.5707   38.2680 C   0  0  0  0  0  0
   10.5168   13.1717   39.5920 C   0  0  0  0  0  0
   12.0208   12.9439   39.9176 C   0  0  2  0  0  0
   12.4927   13.6947   41.1900 C   0  0  0  0  0  0
   11.7918   13.8401   42.1643 O   0  0  0  0  0  0
   13.7878   14.1191   41.0976 O   0  0  0  0  0  0
   12.9058   13.1762   38.7700 N   0  0  0  0  0  0
   13.5345   12.1989   38.0965 C   0  0  0  0  0  0
   13.3671   11.0043   38.3533 O   0  0  0  0  0  0
   14.5167   12.6251   37.0378 C   0  0  0  0  0  0
   15.0982   11.6446   36.2403 C   0  0  0  0  0  0
   16.1192   11.9726   35.3703 C   0  0  0  0  0  0
   16.6148   13.2804   35.2584 C   0  0  0  0  0  0
   15.9636   14.2747   36.0009 C   0  0  0  0  0  0
   14.9284   13.9568   36.8766 C   0  0  0  0  0  0
   17.7577   13.5808   34.4534 N   0  0  0  0  0  0
   18.6354   12.5507   33.8694 C   0  0  0  0  0  0
   19.0084   11.4652   34.7929 C   0  0  0  0  0  0
   19.3053   10.5912   35.5910 C   0  0  0  0  0  0
   18.0227   14.9529   34.0020 C   0  0  0  0  0  0
   17.0246   15.4004   32.9444 C   0  0  0  0  0  0
   17.0827   14.8792   31.6448 C   0  0  0  0  0  0
   16.1839   15.3164   30.6681 C   0  0  0  0  0  0
   15.2267   16.2726   30.9966 C   0  0  0  0  0  0
   15.1579   16.7908   32.2956 C   0  0  0  0  0  0
   16.0647   16.3610   33.2664 C   0  0  0  0  0  0
   14.0949   17.8214   32.6408 C   0  0  0  0  0  0
   13.2740   18.2165   31.5791 N   0  0  0  0  0  0
   13.3951   17.7229   30.4081 C   0  0  0  0  0  0
   14.3219   16.7611   30.0494 N   0  0  0  0  0  0
   12.4512   18.1885   29.3301 C   0  0  0  0  0  0
   14.0140   18.2276   33.7989 O   0  0  0  0  0  0
   12.0967   11.8941   40.2090 H   0  0  0  0  0  0
    9.7167   13.0255   36.1586 H   0  0  0  0  0  0
    9.7240   14.4487   37.1908 H   0  0  0  0  0  0
   11.2336   13.6336   36.7916 H   0  0  0  0  0  0
   10.4370   11.5916   38.0904 H   0  0  0  0  0  0
    8.9197   12.3933   38.3718 H   0  0  0  0  0  0
    9.9366   12.7185   40.3891 H   0  0  0  0  0  0
   10.2645   14.2282   39.6232 H   0  0  0  0  0  0
   14.1589   13.8439   40.2554 H   0  0  0  0  0  0
   12.9651   14.1230   38.4283 H   0  0  0  0  0  0
   14.7961   10.6078   36.3085 H   0  0  0  0  0  0
   16.5145   11.1610   34.7913 H   0  0  0  0  0  0
   16.2880   15.3019   35.9731 H   0  0  0  0  0  0
   14.5086   14.7577   37.4655 H   0  0  0  0  0  0
   18.1887   12.1013   32.9821 H   0  0  0  0  0  0
   19.5787   12.9949   33.5458 H   0  0  0  0  0  0
   19.5449    9.8282   36.2958 H   0  0  0  0  0  0
   19.0150   15.0289   33.5528 H   0  0  0  0  0  0
   18.0542   15.6445   34.8429 H   0  0  0  0  0  0
   17.8271   14.1361   31.3922 H   0  0  0  0  0  0
   16.2397   14.9122   29.6682 H   0  0  0  0  0  0
   16.0219   16.7652   34.2702 H   0  0  0  0  0  0
   11.8234   19.0186   29.6645 H   0  0  0  0  0  0
   12.9930   18.5217   28.4451 H   0  0  0  0  0  0
   11.7909   17.3725   29.0494 H   0  0  0  0  0  0
   14.3621   16.4165   29.1058 H   0  0  0  0  0  0
  1  2  1  0  0  0
  1 35  1  0  0  0
  1 36  1  0  0  0
  1 37  1  0  0  0
  2  3  1  0  0  0
  2 38  1  0  0  0
  2 39  1  0  0  0
  3  4  1  0  0  0
  3 40  1  0  0  0
  3 41  1  0  0  0
  4 34  1  0  0  0
  4  5  1  0  0  0
  4  8  1  0  0  0
  5  6  2  0  0  0
  5  7  1  0  0  0
  7 42  1  0  0  0
  8  9  1  0  0  0
  8 43  1  0  0  0
  9 10  2  0  0  0
  9 11  1  0  0  0
 11 16  1  0  0  0
 11 12  2  0  0  0
 12 13  1  0  0  0
 12 44  1  0  0  0
 13 14  2  0  0  0
 13 45  1  0  0  0
 14 15  1  0  0  0
 14 17  1  0  0  0
 15 16  2  0  0  0
 15 46  1  0  0  0
 16 47  1  0  0  0
 17 18  1  0  0  0
 17 21  1  0  0  0
 18 19  1  0  0  0
 18 48  1  0  0  0
 18 49  1  0  0  0
 19 20  3  0  0  0
 20 50  1  0  0  0
 21 51  1  0  0  0
 21 52  1  0  0  0
 21 22  1  0  0  0
 22 27  2  0  0  0
 22 23  1  0  0  0
 23 53  1  0  0  0
 23 24  2  0  0  0
 24 54  1  0  0  0
 24 25  1  0  0  0
 25 26  2  0  0  0
 25 31  1  0  0  0
 26 28  1  0  0  0
 26 27  1  0  0  0
 27 55  1  0  0  0
 28 33  2  0  0  0
 28 29  1  0  0  0
 29 30  2  0  0  0
 30 31  1  0  0  0
 30 32  1  0  0  0
 31 59  1  0  0  0
 32 56  1  0  0  0
 32 57  1  0  0  0
 32 58  1  0  0  0
M  END
> <s_m_entry_id>
41928

> <s_m_entry_name>
ligand_docking-pose.288

> <s_m_Source_Path>
/home/csk/Desktop/cluster/DUD-E-result/tysy

> <s_m_Source_File>
ligand_docking-pose.sdf

> <i_m_Source_File_Index>
288

> <i_lp_mmshare_version>
53161

> <i_f3d_flags>
0

> <r_lp_tautomer_probability>
0.116051

> <s_lp_Force_Field>
OPLS_2005

> <r_lp_Energy>
18.883018

> <b_lp_Chiralities_Consistent>
1

> <s_lp_Variant>
523-2

> <s_i_glide_gridfile>
glide-grid_1syn

> <i_i_glide_lignum>
746

> <i_i_glide_rotatable_bonds>
12

> <r_i_docking_score>
-7.05636733913795

> <r_i_glide_ligand_efficiency>
-0.21382931330721

> <r_i_glide_ligand_efficiency_sa>
-0.685864862392934

> <r_i_glide_ligand_efficiency_ln>
-1.56929956030956

> <r_i_glide_gscore>
-7.05636733913795

> <r_i_glide_lipo>
-3.66481622449074

> <r_i_glide_hbond>
-0.16

> <r_i_glide_metal>
0

> <r_i_glide_rewards>
-0.840434145736583

> <r_i_glide_evdw>
-54.7483444213867

> <r_i_glide_ecoul>
-4.13273954391479

> <r_i_glide_erotb>
1.00405473520685

> <r_i_glide_esite>
-0.0378435514609171

> <r_i_glide_emodel>
-82.3399672086933

> <r_i_glide_energy>
-58.8810839653015

> <r_i_glide_einternal>
7.11825704574585

> <i_i_glide_confnum>
9

> <i_i_glide_posenum>
82

> <r_i_glide_eff_state_penalty>
0

> <s_user_duplicate_titles>
523

> <s_m_subgroup_title>
dock_pv

> <s_m_subgroupid>
dock_pv1

> <b_m_subgroup_collapsed>
0

$$$$
421
                    3D
 Schrodinger Suite 2021-1.
 53 56  0  0  1  0            999 V2000
   12.5748   18.0420   29.2912 C   0  0  0  0  0  0
   13.4985   17.6259   30.4082 C   0  0  0  0  0  0
   14.4549   16.6711   30.1120 N   0  0  0  0  0  0
   15.3318   16.2282   31.1070 C   0  0  0  0  0  0
   16.3183   15.2836   30.8424 C   0  0  0  0  0  0
   17.1897   14.8930   31.8627 C   0  0  0  0  0  0
   17.0688   15.4401   33.1486 C   0  0  0  0  0  0
   16.0768   16.3885   33.4041 C   0  0  0  0  0  0
   15.2027   16.7785   32.3870 C   0  0  0  0  0  0
   14.1078   17.7960   32.6633 C   0  0  0  0  0  0
   13.3222   18.1466   31.5605 N   0  0  0  0  0  0
   13.9706   18.2279   33.8051 O   0  0  0  0  0  0
   18.0240   15.0334   34.2659 C   0  0  0  0  0  0
   17.7526   13.6707   34.7478 N   0  0  0  0  0  0
   18.4972   12.6261   34.0268 C   0  0  0  0  0  0
   18.9922   11.5296   34.8763 C   0  0  0  0  0  0
   19.3925   10.6272   35.5910 C   0  0  0  0  0  0
   16.5589   13.3890   35.4884 C   0  0  0  0  0  0
   15.8645   14.4071   36.1561 C   0  0  0  0  0  0
   14.7236   14.1409   36.9098 C   0  0  0  0  0  0
   14.2417   12.8306   37.0362 C   0  0  0  0  0  0
   14.9018   11.8125   36.3476 C   0  0  0  0  0  0
   16.0318   12.0902   35.5910 C   0  0  0  0  0  0
   13.0688   12.4776   37.9227 C   0  0  0  0  0  0
   12.5853   11.3442   37.9160 O   0  0  0  0  0  0
   12.6521   13.4293   38.7742 N   0  0  0  0  0  0
   11.7396   13.2044   39.8929 C   0  0  0  0  0  0
   12.5413   12.9608   41.1544 C   0  0  0  0  0  0
   13.0106   11.7802   41.4882 N   0  0  0  0  0  0
   13.7367   11.8201   42.5882 C   0  0  0  0  0  0
   13.8652   13.0643   43.1904 C   0  0  0  0  0  0
   12.9911   14.2279   42.2509 S   0  0  0  0  0  0
   12.0968   19.0028   29.4970 H   0  0  0  0  0  0
   13.1027   18.1339   28.3408 H   0  0  0  0  0  0
   11.7833   17.3025   29.1807 H   0  0  0  0  0  0
   16.4206   14.8560   29.8565 H   0  0  0  0  0  0
   17.9625   14.1670   31.6495 H   0  0  0  0  0  0
   15.9810   16.8176   34.3902 H   0  0  0  0  0  0
   14.5320   16.2958   29.1821 H   0  0  0  0  0  0
   19.0374   15.1013   33.8658 H   0  0  0  0  0  0
   18.0168   15.7490   35.0858 H   0  0  0  0  0  0
   17.8676   12.2272   33.2358 H   0  0  0  0  0  0
   19.3830   13.0283   33.5312 H   0  0  0  0  0  0
   19.7458    9.8285   36.2002 H   0  0  0  0  0  0
   16.2117   15.4268   36.1404 H   0  0  0  0  0  0
   14.2539   14.9711   37.4154 H   0  0  0  0  0  0
   14.5557   10.7898   36.4004 H   0  0  0  0  0  0
   16.4704   11.2564   35.0726 H   0  0  0  0  0  0
   13.0288   14.3578   38.6679 H   0  0  0  0  0  0
   11.1148   14.0914   39.9990 H   0  0  0  0  0  0
   11.0403   12.3904   39.6864 H   0  0  0  0  0  0
   14.1915   10.9095   42.9524 H   0  0  0  0  0  0
   14.4159   13.3397   44.0789 H   0  0  0  0  0  0
  1 33  1  0  0  0
  1 34  1  0  0  0
  1 35  1  0  0  0
  1  2  1  0  0  0
  2  3  1  0  0  0
  2 11  2  0  0  0
  3  4  1  0  0  0
  3 39  1  0  0  0
  4  9  2  0  0  0
  4  5  1  0  0  0
  5  6  2  0  0  0
  5 36  1  0  0  0
  6  7  1  0  0  0
  6 37  1  0  0  0
  7  8  2  0  0  0
  7 13  1  0  0  0
  8  9  1  0  0  0
  8 38  1  0  0  0
  9 10  1  0  0  0
 10 12  2  0  0  0
 10 11  1  0  0  0
 13 14  1  0  0  0
 13 40  1  0  0  0
 13 41  1  0  0  0
 14 15  1  0  0  0
 14 18  1  0  0  0
 15 16  1  0  0  0
 15 42  1  0  0  0
 15 43  1  0  0  0
 16 17  3  0  0  0
 17 44  1  0  0  0
 18 23  1  0  0  0
 18 19  2  0  0  0
 19 20  1  0  0  0
 19 45  1  0  0  0
 20 21  2  0  0  0
 20 46  1  0  0  0
 21 22  1  0  0  0
 21 24  1  0  0  0
 22 23  2  0  0  0
 22 47  1  0  0  0
 23 48  1  0  0  0
 24 25  2  0  0  0
 24 26  1  0  0  0
 26 27  1  0  0  0
 26 49  1  0  0  0
 27 28  1  0  0  0
 27 50  1  0  0  0
 27 51  1  0  0  0
 28 32  1  0  0  0
 28 29  2  0  0  0
 29 30  1  0  0  0
 30 31  2  0  0  0
 30 52  1  0  0  0
 31 32  1  0  0  0
 31 53  1  0  0  0
M  END
> <s_m_entry_id>
41930

> <s_m_entry_name>
ligand_docking-pose.290

> <s_m_Source_Path>
/home/csk/Desktop/cluster/DUD-E-result/tysy

> <s_m_Source_File>
ligand_docking-pose.sdf

> <i_m_Source_File_Index>
290

> <i_lp_mmshare_version>
53161

> <i_f3d_flags>
0

> <r_lp_tautomer_probability>
0.116051

> <s_lp_Force_Field>
OPLS_2005

> <r_lp_Energy>
20.5882

> <b_lp_Chiralities_Consistent>
1

> <s_lp_Variant>
421-2

> <s_i_glide_gridfile>
glide-grid_1syn

> <i_i_glide_lignum>
549

> <i_i_glide_rotatable_bonds>
9

> <r_i_docking_score>
-7.03903554508529

> <r_i_glide_ligand_efficiency>
-0.219969860783915

> <r_i_glide_ligand_efficiency_sa>
-0.698360776012593

> <r_i_glide_ligand_efficiency_ln>
-1.57623193540672

> <r_i_glide_gscore>
-7.03903554508529

> <r_i_glide_lipo>
-3.65473228743202

> <r_i_glide_hbond>
0

> <r_i_glide_metal>
0

> <r_i_glide_rewards>
-0.978270151503507

> <r_i_glide_evdw>
-59.1847229003906

> <r_i_glide_ecoul>
-1.73239803314209

> <r_i_glide_erotb>
0.813062743841087

> <r_i_glide_esite>
0

> <r_i_glide_emodel>
-85.5725912165533

> <r_i_glide_energy>
-60.9171209335327

> <r_i_glide_einternal>
3.76467418670654

> <i_i_glide_confnum>
36

> <i_i_glide_posenum>
276

> <r_i_glide_eff_state_penalty>
0

> <s_user_duplicate_titles>
421

> <s_m_subgroup_title>
dock_pv

> <s_m_subgroupid>
dock_pv1

> <b_m_subgroup_collapsed>
0

$$$$
268451
                    3D
 Schrodinger Suite 2021-1.
 68 72  0  0  1  0            999 V2000
   14.5919    6.7694   39.8611 C   0  0  0  0  0  0
   14.5202    7.3791   38.8062 C   0  0  0  0  0  0
   14.3974    8.0678   37.5085 C   0  0  0  0  0  0
   13.8601    9.4341   37.6208 N   0  0  0  0  0  0
   14.6488   10.4759   38.2828 C   0  0  0  0  0  0
   15.2896   11.4066   37.2600 C   0  0  0  0  0  0
   14.8843   12.7454   37.1869 C   0  0  0  0  0  0
   15.5343   13.6324   36.3282 C   0  0  0  0  0  0
   16.5925   13.1822   35.5451 C   0  0  0  0  0  0
   17.0012   11.8463   35.6180 C   0  0  0  0  0  0
   16.3464   10.9506   36.4623 C   0  0  0  0  0  0
   18.1923   11.4188   34.7911 C   0  0  0  0  0  0
   18.6390   12.4160   33.9911 N   0  0  0  0  0  0
   18.1393   13.6860   33.8911 C   0  0  0  0  0  0
   17.2128   14.0925   34.6814 N   0  0  0  0  0  0
   18.6618   14.5891   32.7905 C   0  0  0  0  0  0
   17.4580   14.6293   31.4153 S   0  0  0  0  0  0
   16.1907   15.8175   31.7907 C   0  0  0  0  0  0
   16.2892   16.5391   32.9404 N   0  0  0  0  0  0
   15.3015   17.4386   33.1854 C   0  0  0  0  0  0
   14.2368   17.6360   32.3046 C   0  0  0  0  0  0
   14.2259   16.8545   31.1465 C   0  0  0  0  0  0
   15.1945   15.9383   30.8757 N   0  0  0  0  0  0
   18.7146   10.3086   34.8135 O   0  0  0  0  0  0
   12.6552    9.7908   36.9664 C   0  0  0  0  0  0
   12.3053    9.1692   35.7664 C   0  0  0  0  0  0
   11.1027    9.4691   35.1485 C   0  0  0  0  0  0
   10.2122   10.3763   35.7151 C   0  0  0  0  0  0
   10.5731   11.0575   36.8810 C   0  0  0  0  0  0
   11.7928   10.7678   37.4965 C   0  0  0  0  0  0
    8.8844   10.5659   35.0397 C   0  0  0  0  0  0
    8.2317    9.5823   34.6843 O   0  0  0  0  0  0
    8.5572   11.8277   34.7193 N   0  0  0  0  0  0
    7.6003   12.1631   33.6557 C   0  0  0  0  0  0
    8.2828   12.3109   32.2952 C   0  0  0  0  0  0
    9.1007   11.3004   31.7819 C   0  0  0  0  0  0
    9.8333   11.5198   30.6216 C   0  0  0  0  0  0
    9.7917   12.7564   29.9814 C   0  0  0  0  0  0
    8.8976   13.7469   30.4084 C   0  0  0  0  0  0
    8.1374   13.4922   31.5638 C   0  0  0  0  0  0
    8.7442   15.0277   29.6743 N   0  3  0  0  0  0
    9.5553   15.3035   28.7939 O   0  5  0  0  0  0
    7.8098   15.7607   29.9912 O   0  0  0  0  0  0
   14.6285    6.2272   40.7775 H   0  0  0  0  0  0
   13.7753    7.4125   36.9007 H   0  0  0  0  0  0
   15.3792    8.0883   37.0372 H   0  0  0  0  0  0
   15.4567   10.0189   38.8564 H   0  0  0  0  0  0
   14.0577   11.0316   39.0110 H   0  0  0  0  0  0
   14.0767   13.1076   37.8050 H   0  0  0  0  0  0
   15.2285   14.6668   36.2713 H   0  0  0  0  0  0
   16.6780    9.9239   36.5275 H   0  0  0  0  0  0
   19.6151   14.2205   32.4064 H   0  0  0  0  0  0
   18.8465   15.5955   33.1641 H   0  0  0  0  0  0
   15.3817   18.0087   34.0989 H   0  0  0  0  0  0
   13.4633   18.3650   32.5041 H   0  0  0  0  0  0
   13.4366   16.9562   30.4165 H   0  0  0  0  0  0
   19.4401   12.1595   33.4211 H   0  0  0  0  0  0
   12.9603    8.4648   35.2758 H   0  0  0  0  0  0
   10.8662    9.0282   34.1948 H   0  0  0  0  0  0
    9.9038   11.7769   37.3318 H   0  0  0  0  0  0
   12.0326   11.2769   38.4149 H   0  0  0  0  0  0
    9.1508   12.5726   35.0532 H   0  0  0  0  0  0
    6.8323   11.3936   33.5571 H   0  0  0  0  0  0
    7.0910   13.0882   33.9318 H   0  0  0  0  0  0
    9.2006   10.3513   32.2889 H   0  0  0  0  0  0
   10.4778   10.7407   30.2422 H   0  0  0  0  0  0
   10.4049   12.9119   29.1044 H   0  0  0  0  0  0
    7.4375   14.2281   31.9257 H   0  0  0  0  0  0
  1  2  3  0  0  0
  1 44  1  0  0  0
  2  3  1  0  0  0
  3  4  1  0  0  0
  3 45  1  0  0  0
  3 46  1  0  0  0
  4  5  1  0  0  0
  4 25  1  0  0  0
  5 47  1  0  0  0
  5 48  1  0  0  0
  5  6  1  0  0  0
  6 11  2  0  0  0
  6  7  1  0  0  0
  7 49  1  0  0  0
  7  8  2  0  0  0
  8 50  1  0  0  0
  8  9  1  0  0  0
  9 10  2  0  0  0
  9 15  1  0  0  0
 10 12  1  0  0  0
 10 11  1  0  0  0
 11 51  1  0  0  0
 12 24  2  0  0  0
 12 13  1  0  0  0
 13 14  1  0  0  0
 13 57  1  0  0  0
 14 15  2  0  0  0
 14 16  1  0  0  0
 16 17  1  0  0  0
 16 52  1  0  0  0
 16 53  1  0  0  0
 17 18  1  0  0  0
 18 23  1  0  0  0
 18 19  2  0  0  0
 19 20  1  0  0  0
 20 21  2  0  0  0
 20 54  1  0  0  0
 21 22  1  0  0  0
 21 55  1  0  0  0
 22 23  2  0  0  0
 22 56  1  0  0  0
 25 30  1  0  0  0
 25 26  2  0  0  0
 26 27  1  0  0  0
 26 58  1  0  0  0
 27 28  2  0  0  0
 27 59  1  0  0  0
 28 29  1  0  0  0
 28 31  1  0  0  0
 29 30  2  0  0  0
 29 60  1  0  0  0
 30 61  1  0  0  0
 31 32  2  0  0  0
 31 33  1  0  0  0
 33 34  1  0  0  0
 33 62  1  0  0  0
 34 35  1  0  0  0
 34 63  1  0  0  0
 34 64  1  0  0  0
 35 40  1  0  0  0
 35 36  2  0  0  0
 36 37  1  0  0  0
 36 65  1  0  0  0
 37 38  2  0  0  0
 37 66  1  0  0  0
 38 39  1  0  0  0
 38 67  1  0  0  0
 39 40  2  0  0  0
 39 41  1  0  0  0
 40 68  1  0  0  0
 41 42  1  0  0  0
 41 43  2  0  0  0
M  CHG  2  41   1  42  -1
M  END
> <s_m_entry_id>
41931

> <s_m_entry_name>
ligand_docking-pose.291

> <s_m_Source_Path>
/home/csk/Desktop/cluster/DUD-E-result/tysy

> <s_m_Source_File>
ligand_docking-pose.sdf

> <i_m_Source_File_Index>
291

> <i_lp_mmshare_version>
53161

> <i_f3d_flags>
0

> <r_lp_tautomer_probability>
0.883938

> <s_lp_Force_Field>
OPLS_2005

> <r_lp_Energy>
25.005708

> <b_lp_Chiralities_Consistent>
1

> <s_lp_Variant>
268451-1

> <s_i_glide_gridfile>
glide-grid_1syn

> <i_i_glide_lignum>
794

> <i_i_glide_rotatable_bonds>
13

> <r_i_docking_score>
-7.03022496170445

> <r_i_glide_ligand_efficiency>
-0.163493603760569

> <r_i_glide_ligand_efficiency_sa>
-0.572783173582295

> <r_i_glide_ligand_efficiency_ln>
-1.47656573781301

> <r_i_glide_gscore>
-7.03022496170445

> <r_i_glide_lipo>
-3.37851750149141

> <r_i_glide_hbond>
-0.117489984117607

> <r_i_glide_metal>
0

> <r_i_glide_rewards>
-0.653842687447274

> <r_i_glide_evdw>
-62.079906463623

> <r_i_glide_ecoul>
-1.84138000011444

> <r_i_glide_erotb>
0.608734994892094

> <r_i_glide_esite>
-0.108907460341936

> <r_i_glide_emodel>
-85.0732804847788

> <r_i_glide_energy>
-63.9212864637375

> <r_i_glide_einternal>
13.3670587539673

> <i_i_glide_confnum>
15

> <i_i_glide_posenum>
144

> <r_i_glide_eff_state_penalty>
0

> <s_user_duplicate_titles>
268451

> <s_m_subgroup_title>
dock_pv

> <s_m_subgroupid>
dock_pv1

> <b_m_subgroup_collapsed>
0

$$$$
364747
                    3D
 Schrodinger Suite 2021-1.
 17 18  0  0  1  0            999 V2000
   14.7872   15.8846   30.6400 C   0  0  0  0  0  0
   15.6407   16.0641   31.8853 C   0  0  0  0  0  0
   15.3164   17.0511   32.6263 N   0  0  0  0  0  0
   14.2546   17.6266   32.0243 C   0  0  0  0  0  0
   13.8655   17.0361   30.8873 C   0  0  0  0  0  0
   12.7092   17.5491   30.1812 C   0  0  0  0  0  0
   12.2197   17.0280   29.1910 O   0  0  0  0  0  0
   12.1920   18.6593   30.7591 N   0  0  0  0  0  0
   12.6427   19.2324   31.9143 C   0  0  0  0  0  0
   13.6377   18.7212   32.5557 N   0  0  0  0  0  0
   11.9855   20.3725   32.3910 N   0  0  0  0  0  0
   11.3647   19.0277   30.3093 H   0  0  0  0  0  0
   15.3827   15.9810   29.7305 H   0  0  0  0  0  0
   14.2817   14.9193   30.6262 H   0  0  0  0  0  0
   16.4725   15.4127   32.1386 H   0  0  0  0  0  0
   12.1920   20.7015   33.3310 H   0  0  0  0  0  0
   11.0975   20.6628   32.0148 H   0  0  0  0  0  0
  1  5  1  0  0  0
  1  2  1  0  0  0
  1 13  1  0  0  0
  1 14  1  0  0  0
  2  3  2  0  0  0
  2 15  1  0  0  0
  3  4  1  0  0  0
  4 10  1  0  0  0
  4  5  2  0  0  0
  5  6  1  0  0  0
  6  7  2  0  0  0
  6  8  1  0  0  0
  8 12  1  0  0  0
  8  9  1  0  0  0
  9 10  2  0  0  0
  9 11  1  0  0  0
 11 16  1  0  0  0
 11 17  1  0  0  0
M  END
> <s_m_entry_id>
41933

> <s_m_entry_name>
ligand_docking-pose.293

> <s_m_Source_Path>
/home/csk/Desktop/cluster/DUD-E-result/tysy

> <s_m_Source_File>
ligand_docking-pose.sdf

> <i_m_Source_File_Index>
293

> <i_lp_mmshare_version>
53161

> <i_f3d_flags>
0

> <r_lp_tautomer_probability>
0.999601159137504

> <s_lp_Force_Field>
OPLS_2005

> <r_lp_Energy>
20.418416

> <b_lp_Chiralities_Consistent>
1

> <s_lp_Variant>
364747-1

> <s_i_glide_gridfile>
glide-grid_1syn

> <i_i_glide_lignum>
168

> <i_i_glide_rotatable_bonds>
0

> <r_i_docking_score>
-7.00603035049202

> <r_i_glide_ligand_efficiency>
-0.636911850044729

> <r_i_glide_ligand_efficiency_sa>
-1.41647927281496

> <r_i_glide_ligand_efficiency_ln>
-2.06187353876923

> <r_i_glide_gscore>
-7.00603035049202

> <r_i_glide_lipo>
-0.978566066669057

> <r_i_glide_hbond>
-0.566045793220785

> <r_i_glide_metal>
0

> <r_i_glide_rewards>
-3.12264509808979

> <r_i_glide_evdw>
-23.3284816741943

> <r_i_glide_ecoul>
-7.6238112449646

> <r_i_glide_erotb>
0

> <r_i_glide_esite>
-0.0287776220579824

> <r_i_glide_emodel>
-45.5433287569253

> <r_i_glide_energy>
-30.9522929191589

> <r_i_glide_einternal>
0

> <i_i_glide_confnum>
1

> <i_i_glide_posenum>
165

> <r_i_glide_eff_state_penalty>
0

> <s_user_duplicate_titles>
364747

> <s_m_subgroup_title>
dock_pv

> <s_m_subgroupid>
dock_pv1

> <b_m_subgroup_collapsed>
0

$$$$
111754
                    3D
 Schrodinger Suite 2021-1.
 58 61  0  0  1  0            999 V2000
   13.8536   17.4366   28.8036 C   0  0  0  0  0  0
   14.3012   17.0500   30.1950 C   0  0  0  0  0  0
   15.2844   16.2441   30.3799 N   0  0  0  0  0  0
   15.6631   15.9063   31.6936 C   0  0  0  0  0  0
   16.7266   15.0283   31.8865 C   0  0  0  0  0  0
   17.0749   14.6273   33.1811 C   0  0  0  0  0  0
   16.3542   15.0858   34.2940 C   0  0  0  0  0  0
   15.3386   16.0311   34.0998 C   0  0  0  0  0  0
   14.9918   16.4215   32.8061 C   0  0  0  0  0  0
   13.8565   17.3857   32.5660 C   0  0  0  0  0  0
   13.6395   17.6126   31.2497 N   0  0  0  0  0  0
   13.1711   17.9181   33.4319 O   0  0  0  0  0  0
   16.6780   14.5619   35.6974 C   0  0  0  0  0  0
   15.5410   13.8418   36.3034 N   0  0  0  0  0  0
   14.5863   14.6279   37.0828 C   0  0  0  0  0  0
   15.4966   12.4225   36.3911 C   0  0  0  0  0  0
   16.3229   11.6175   35.5890 C   0  0  0  0  0  0
   16.2178   10.2243   35.5986 C   0  0  0  0  0  0
   15.2982    9.6225   36.4545 C   0  0  0  0  0  0
   14.5157   10.3789   37.2963 C   0  0  0  0  0  0
   14.5981   11.7698   37.2613 C   0  0  0  0  0  0
   13.6764    9.4623   38.1303 C   0  0  0  0  0  0
   14.0369    8.1389   37.6230 N   0  0  0  0  0  0
   14.9537    8.1786   36.6222 C   0  0  0  0  0  0
   15.3919    7.2206   35.9910 O   0  0  0  0  0  0
   13.5123    6.8991   38.2402 C   0  0  1  0  0  0
   12.5142    6.1630   37.2987 C   0  0  0  0  0  0
   11.3298    7.0132   36.7908 C   0  0  0  0  0  0
   10.4289    7.5823   37.8890 C   0  0  0  0  0  0
   10.4187    7.1879   39.0529 O   0  0  0  0  0  0
    9.6253    8.5800   37.4227 O   0  0  0  0  0  0
   14.5987    5.9763   38.8526 C   0  0  0  0  0  0
   14.9967    6.1043   39.9906 O   0  0  0  0  0  0
   15.0411    5.0426   37.9576 O   0  0  0  0  0  0
   12.9376    7.2111   39.1124 H   0  0  0  0  0  0
   14.2391   18.4187   28.5323 H   0  0  0  0  0  0
   14.1920   16.7192   28.0560 H   0  0  0  0  0  0
   12.7663   17.4777   28.7392 H   0  0  0  0  0  0
   17.2616   14.6372   31.0337 H   0  0  0  0  0  0
   17.8831   13.9204   33.3080 H   0  0  0  0  0  0
   14.7959   16.4431   34.9356 H   0  0  0  0  0  0
   12.8937   18.2649   31.0690 H   0  0  0  0  0  0
   16.9286   15.4183   36.3260 H   0  0  0  0  0  0
   17.5824   13.9533   35.6828 H   0  0  0  0  0  0
   13.5681   14.2613   36.9486 H   0  0  0  0  0  0
   14.8256   14.5760   38.1451 H   0  0  0  0  0  0
   14.5920   15.6731   36.7910 H   0  0  0  0  0  0
   17.0199   12.0594   34.8946 H   0  0  0  0  0  0
   16.8379    9.6389   34.9345 H   0  0  0  0  0  0
   13.9593   12.3335   37.9216 H   0  0  0  0  0  0
   12.6097    9.6467   38.0000 H   0  0  0  0  0  0
   13.9068    9.5428   39.1931 H   0  0  0  0  0  0
   12.1243    5.2787   37.8064 H   0  0  0  0  0  0
   13.0354    5.7859   36.4174 H   0  0  0  0  0  0
   10.7095    6.3968   36.1406 H   0  0  0  0  0  0
   11.7075    7.8296   36.1737 H   0  0  0  0  0  0
    9.7467    8.7578   36.4878 H   0  0  0  0  0  0
   14.6650    5.1545   37.0808 H   0  0  0  0  0  0
  1 36  1  0  0  0
  1 37  1  0  0  0
  1 38  1  0  0  0
  1  2  1  0  0  0
  2  3  2  0  0  0
  2 11  1  0  0  0
  3  4  1  0  0  0
  4  9  2  0  0  0
  4  5  1  0  0  0
  5  6  2  0  0  0
  5 39  1  0  0  0
  6  7  1  0  0  0
  6 40  1  0  0  0
  7  8  2  0  0  0
  7 13  1  0  0  0
  8  9  1  0  0  0
  8 41  1  0  0  0
  9 10  1  0  0  0
 10 12  2  0  0  0
 10 11  1  0  0  0
 11 42  1  0  0  0
 13 14  1  0  0  0
 13 43  1  0  0  0
 13 44  1  0  0  0
 14 15  1  0  0  0
 14 16  1  0  0  0
 15 45  1  0  0  0
 15 46  1  0  0  0
 15 47  1  0  0  0
 16 21  1  0  0  0
 16 17  2  0  0  0
 17 18  1  0  0  0
 17 48  1  0  0  0
 18 19  2  0  0  0
 18 49  1  0  0  0
 19 24  1  0  0  0
 19 20  1  0  0  0
 20 21  2  0  0  0
 20 22  1  0  0  0
 21 50  1  0  0  0
 22 23  1  0  0  0
 22 51  1  0  0  0
 22 52  1  0  0  0
 23 24  1  0  0  0
 23 26  1  0  0  0
 24 25  2  0  0  0
 26 35  1  0  0  0
 26 27  1  0  0  0
 26 32  1  0  0  0
 27 28  1  0  0  0
 27 53  1  0  0  0
 27 54  1  0  0  0
 28 29  1  0  0  0
 28 55  1  0  0  0
 28 56  1  0  0  0
 29 30  2  0  0  0
 29 31  1  0  0  0
 31 57  1  0  0  0
 32 33  2  0  0  0
 32 34  1  0  0  0
 34 58  1  0  0  0
M  END
> <s_m_entry_id>
41937

> <s_m_entry_name>
ligand_docking-pose.297

> <s_m_Source_Path>
/home/csk/Desktop/cluster/DUD-E-result/tysy

> <s_m_Source_File>
ligand_docking-pose.sdf

> <i_m_Source_File_Index>
297

> <i_lp_mmshare_version>
53161

> <i_f3d_flags>
0

> <r_lp_tautomer_probability>
0.883938

> <s_lp_Force_Field>
OPLS_2005

> <r_lp_Energy>
44.328217

> <b_lp_Chiralities_Consistent>
1

> <s_lp_Variant>
111754-1

> <s_i_glide_gridfile>
glide-grid_1syn

> <i_i_glide_lignum>
482

> <i_i_glide_rotatable_bonds>
10

> <r_i_docking_score>
-6.98118927867088

> <r_i_glide_ligand_efficiency>
-0.205329096431497

> <r_i_glide_ligand_efficiency_sa>
-0.665186563163223

> <r_i_glide_ligand_efficiency_ln>
-1.54234052738494

> <r_i_glide_gscore>
-6.98118927867088

> <r_i_glide_lipo>
-3.36374895146125

> <r_i_glide_hbond>
0

> <r_i_glide_metal>
0

> <r_i_glide_rewards>
-1.13444047981158

> <r_i_glide_evdw>
-48.775146484375

> <r_i_glide_ecoul>
-5.27880430221558

> <r_i_glide_erotb>
0.747578122153034

> <r_i_glide_esite>
0

> <r_i_glide_emodel>
-75.9797589523203

> <r_i_glide_energy>
-54.0539507865906

> <r_i_glide_einternal>
5.0150203704834

> <i_i_glide_confnum>
14

> <i_i_glide_posenum>
192

> <r_i_glide_eff_state_penalty>
0

> <s_user_duplicate_titles>
111754

> <s_m_subgroup_title>
dock_pv

> <s_m_subgroupid>
dock_pv1

> <b_m_subgroup_collapsed>
0

$$$$
230379
                    3D
 Schrodinger Suite 2021-1.
 68 71  0  0  1  0            999 V2000
   13.1373    8.4742   35.2042 C   0  0  0  0  0  0
   14.2639    8.1718   36.0916 N   0  0  3  0  0  0
   14.3744    6.7644   36.4959 C   0  0  0  0  0  0
   13.7480    6.4234   37.8628 C   0  0  0  0  0  0
   13.7933    4.9210   38.2097 C   0  0  0  0  0  0
   15.2002    4.2974   38.2850 C   0  0  0  0  0  0
   16.1820    5.0276   39.5884 Cl  0  0  0  0  0  0
   15.0473    9.4173   36.9711 P   0  0  1  0  0  0
   15.7911    9.0277   38.2003 O   0  0  0  0  0  0
   15.9854   10.1565   35.8633 O   0  0  0  0  0  0
   16.8478   11.2176   36.2644 C   0  0  0  0  0  0
   17.1392   12.1166   35.0439 C   0  0  2  0  0  0
   18.4868   11.9490   34.2901 C   0  0  1  0  0  0
   19.1397   13.3342   34.3252 C   0  0  0  0  0  0
   17.9366   14.2379   34.5622 C   0  0  2  0  0  0
   17.1619   13.4783   35.4464 O   0  0  0  0  0  0
   17.1239   14.7054   33.4271 N   0  0  0  0  0  0
   17.3960   14.3701   32.1133 C   0  0  0  0  0  0
   16.7179   14.8720   31.0599 C   0  0  0  0  0  0
   15.6470   15.8279   31.2957 C   0  0  0  0  0  0
   14.9928   16.3871   30.4184 O   0  0  0  0  0  0
   15.4265   16.0562   32.6177 N   0  0  0  0  0  0
   16.0586   15.5413   33.7159 C   0  0  0  0  0  0
   15.6365   15.8278   34.8326 O   0  0  0  0  0  0
   16.9903   14.5131   29.7897 F   0  0  0  0  0  0
   19.3901   10.9779   34.7926 O   0  0  0  0  0  0
   13.8570   10.5001   37.2364 O   0  0  0  0  0  0
   12.6843   10.1263   37.9488 C   0  0  0  0  0  0
   12.4030   11.1253   39.0561 C   0  0  0  0  0  0
   11.4195   12.0541   38.9587 C   0  0  0  0  0  0
   11.1244   13.0753   39.9584 C   0  0  0  0  0  0
   10.1510   13.8272   39.9144 O   0  0  0  0  0  0
   12.1468   13.1252   41.0595 C   0  0  0  0  0  0
   12.0910   14.1706   41.9902 C   0  0  0  0  0  0
   12.9916   14.2280   43.0485 C   0  0  0  0  0  0
   13.9711   13.2576   43.1929 C   0  0  0  0  0  0
   14.0362   12.2051   42.2884 C   0  0  0  0  0  0
   13.1485   12.1308   41.2046 C   0  0  0  0  0  0
   13.2893   10.9874   40.2354 C   0  0  0  0  0  0
   14.0811   10.0643   40.4342 O   0  0  0  0  0  0
   14.6650   16.6851   32.8196 H   0  0  0  0  0  0
   12.1948    8.3140   35.7265 H   0  0  0  0  0  0
   13.1751    9.5063   34.8654 H   0  0  0  0  0  0
   13.1553    7.8284   34.3333 H   0  0  0  0  0  0
   13.8983    6.1408   35.7386 H   0  0  0  0  0  0
   15.4288    6.4951   36.4917 H   0  0  0  0  0  0
   14.2340    6.9892   38.6562 H   0  0  0  0  0  0
   12.7064    6.7430   37.8661 H   0  0  0  0  0  0
   13.2843    4.7585   39.1602 H   0  0  0  0  0  0
   13.2066    4.3730   37.4720 H   0  0  0  0  0  0
   15.1305    3.2320   38.4969 H   0  0  0  0  0  0
   15.7456    4.4012   37.3471 H   0  0  0  0  0  0
   16.3378   11.8131   37.0248 H   0  0  0  0  0  0
   17.7486   10.8292   36.7354 H   0  0  0  0  0  0
   16.2655   12.0706   34.4037 H   0  0  0  0  0  0
   18.2579   11.7016   33.2535 H   0  0  0  0  0  0
   19.7989   13.4359   35.1831 H   0  0  0  0  0  0
   19.7300   13.5964   33.4440 H   0  0  0  0  0  0
   18.2388   15.1627   35.0611 H   0  0  0  0  0  0
   18.1906   13.6528   31.9729 H   0  0  0  0  0  0
   20.2091   11.0435   34.2695 H   0  0  0  0  0  0
   12.7448    9.1154   38.3594 H   0  0  0  0  0  0
   11.8508   10.1092   37.2444 H   0  0  0  0  0  0
   10.8227   12.0642   38.0566 H   0  0  0  0  0  0
   11.3394   14.9457   41.9112 H   0  0  0  0  0  0
   12.9109   15.0280   43.7646 H   0  0  0  0  0  0
   14.6783   13.3106   44.0039 H   0  0  0  0  0  0
   14.8067   11.4591   42.4330 H   0  0  0  0  0  0
  1  2  1  0  0  0
  1 42  1  0  0  0
  1 43  1  0  0  0
  1 44  1  0  0  0
  2  3  1  0  0  0
  2  8  1  0  0  0
  3  4  1  0  0  0
  3 45  1  0  0  0
  3 46  1  0  0  0
  4  5  1  0  0  0
  4 47  1  0  0  0
  4 48  1  0  0  0
  5  6  1  0  0  0
  5 49  1  0  0  0
  5 50  1  0  0  0
  6  7  1  0  0  0
  6 51  1  0  0  0
  6 52  1  0  0  0
  8  9  2  0  0  0
  8 10  1  0  0  0
  8 27  1  0  0  0
 10 11  1  0  0  0
 11 12  1  0  0  0
 11 53  1  0  0  0
 11 54  1  0  0  0
 12 16  1  0  0  0
 12 13  1  0  0  0
 12 55  1  0  0  0
 13 14  1  0  0  0
 13 26  1  0  0  0
 13 56  1  0  0  0
 14 15  1  0  0  0
 14 57  1  0  0  0
 14 58  1  0  0  0
 15 16  1  0  0  0
 15 17  1  0  0  0
 15 59  1  0  0  0
 17 23  1  0  0  0
 17 18  1  0  0  0
 18 19  2  0  0  0
 18 60  1  0  0  0
 19 20  1  0  0  0
 19 25  1  0  0  0
 20 21  2  0  0  0
 20 22  1  0  0  0
 22 41  1  0  0  0
 22 23  1  0  0  0
 23 24  2  0  0  0
 26 61  1  0  0  0
 27 28  1  0  0  0
 28 29  1  0  0  0
 28 62  1  0  0  0
 28 63  1  0  0  0
 29 39  1  0  0  0
 29 30  2  0  0  0
 30 31  1  0  0  0
 30 64  1  0  0  0
 31 32  2  0  0  0
 31 33  1  0  0  0
 33 38  2  0  0  0
 33 34  1  0  0  0
 34 35  2  0  0  0
 34 65  1  0  0  0
 35 36  1  0  0  0
 35 66  1  0  0  0
 36 37  2  0  0  0
 36 67  1  0  0  0
 37 38  1  0  0  0
 37 68  1  0  0  0
 38 39  1  0  0  0
 39 40  2  0  0  0
M  END
> <s_m_entry_id>
41938

> <s_m_entry_name>
ligand_docking-pose.298

> <s_m_Source_Path>
/home/csk/Desktop/cluster/DUD-E-result/tysy

> <s_m_Source_File>
ligand_docking-pose.sdf

> <i_m_Source_File_Index>
298

> <i_lp_mmshare_version>
53161

> <i_f3d_flags>
0

> <r_lp_tautomer_probability>
0.999537046341301

> <s_lp_Force_Field>
OPLS_2005

> <r_lp_Energy>
8.937954

> <b_lp_Chiralities_Consistent>
1

> <s_lp_Variant>
230379-9

> <s_i_glide_gridfile>
glide-grid_1syn

> <i_i_glide_lignum>
945

> <i_i_glide_rotatable_bonds>
13

> <r_i_docking_score>
-6.97089921695322

> <r_i_glide_ligand_efficiency>
-0.17427248042383

> <r_i_glide_ligand_efficiency_sa>
-0.596003498652009

> <r_i_glide_ligand_efficiency_ln>
-1.48668765856991

> <r_i_glide_gscore>
-6.97089921695322

> <r_i_glide_lipo>
-1.53919636543354

> <r_i_glide_hbond>
-0.304

> <r_i_glide_metal>
0

> <r_i_glide_rewards>
-1.10335048831732

> <r_i_glide_evdw>
-55.3536338806152

> <r_i_glide_ecoul>
-11.1936044692993

> <r_i_glide_erotb>
0.466851090267618

> <r_i_glide_esite>
-0.0444810890443116

> <r_i_glide_emodel>
-81.4064494807443

> <r_i_glide_energy>
-66.5472383499146

> <r_i_glide_einternal>
21.8448371887207

> <i_i_glide_confnum>
1

> <i_i_glide_posenum>
174

> <r_i_glide_eff_state_penalty>
0

> <s_user_duplicate_titles>
230379

> <s_m_subgroup_title>
dock_pv

> <s_m_subgroupid>
dock_pv1

> <b_m_subgroup_collapsed>
0

$$$$
61753
                    3D
 Schrodinger Suite 2021-1.
 56 58  0  0  1  0            999 V2000
   19.0022   10.4810   34.6512 C   0  0  0  0  0  0
   18.6186   11.8804   34.1305 C   0  0  0  0  0  0
   17.6888   12.6709   34.9556 N   0  0  0  0  0  0
   17.9356   14.1189   34.8173 C   0  0  0  0  0  0
   17.1545   14.7433   33.6642 C   0  0  0  0  0  0
   17.4899   14.4632   32.3296 C   0  0  0  0  0  0
   16.7616   15.0300   31.2823 C   0  0  0  0  0  0
   15.7211   15.9085   31.5686 C   0  0  0  0  0  0
   15.3878   16.2123   32.8935 C   0  0  0  0  0  0
   16.1020   15.6209   33.9395 C   0  0  0  0  0  0
   14.2454   17.1784   33.1796 C   0  0  0  0  0  0
   13.6170   17.7159   32.0508 N   0  0  0  0  0  0
   13.9691   17.4057   30.8632 C   0  0  0  0  0  0
   14.9874   16.5222   30.5497 N   0  0  0  0  0  0
   13.2408   18.0482   29.7043 C   0  0  0  0  0  0
   13.9404   17.4208   34.3463 O   0  0  0  0  0  0
   16.5575   12.1574   35.5908 C   0  0  0  0  0  0
   16.2485   10.8830   35.6769 N   0  0  0  0  0  0
   15.1871   10.6481   36.4164 C   0  0  0  0  0  0
   14.5826   11.7564   36.9998 C   0  0  0  0  0  0
   15.3982   13.1837   36.3974 S   0  0  0  0  0  0
   13.4625   11.7669   37.8987 C   0  0  0  0  0  0
   12.7682   10.7611   38.0402 O   0  0  0  0  0  0
   13.2665   12.9146   38.5773 N   0  0  0  0  0  0
   12.2008   13.1692   39.5661 C   0  0  2  0  0  0
   12.4219   12.3011   40.8487 C   0  0  0  0  0  0
   13.6291   12.7050   41.7328 C   0  0  0  0  0  0
   13.2744   13.8288   42.7108 C   0  0  0  0  0  0
   12.5920   14.7990   42.3918 O   0  0  0  0  0  0
   13.7693   13.6417   43.9755 O   0  0  0  0  0  0
   10.7665   13.0296   38.9823 C   0  0  0  0  0  0
    9.8341   12.5435   39.5898 O   0  0  0  0  0  0
   10.7010   13.5635   37.7266 O   0  0  0  0  0  0
   12.2765   14.2215   39.8459 H   0  0  0  0  0  0
   19.7948   10.0657   34.0355 H   0  0  0  0  0  0
   19.3612   10.5087   35.6799 H   0  0  0  0  0  0
   18.1884    9.7616   34.5783 H   0  0  0  0  0  0
   18.1920   11.7719   33.1326 H   0  0  0  0  0  0
   19.5398   12.4420   33.9800 H   0  0  0  0  0  0
   17.6905   14.6246   35.7517 H   0  0  0  0  0  0
   18.9973   14.3299   34.6724 H   0  0  0  0  0  0
   18.3132   13.8006   32.1004 H   0  0  0  0  0  0
   17.0212   14.7933   30.2618 H   0  0  0  0  0  0
   15.8312   15.8279   34.9657 H   0  0  0  0  0  0
   12.4029   18.6606   30.0403 H   0  0  0  0  0  0
   13.9134   18.6949   29.1406 H   0  0  0  0  0  0
   12.8435   17.2951   29.0253 H   0  0  0  0  0  0
   15.2067   16.3179   29.5887 H   0  0  0  0  0  0
   14.8722    9.6229   36.5580 H   0  0  0  0  0  0
   13.9066   13.6753   38.4071 H   0  0  0  0  0  0
   12.5190   11.2490   40.5799 H   0  0  0  0  0  0
   11.5266   12.3376   41.4707 H   0  0  0  0  0  0
   14.4722   13.0221   41.1203 H   0  0  0  0  0  0
   13.9617   11.8325   42.2980 H   0  0  0  0  0  0
   14.2996   12.8488   44.1117 H   0  0  0  0  0  0
   11.5625   13.8433   37.4126 H   0  0  0  0  0  0
  1  2  1  0  0  0
  1 35  1  0  0  0
  1 36  1  0  0  0
  1 37  1  0  0  0
  2  3  1  0  0  0
  2 38  1  0  0  0
  2 39  1  0  0  0
  3  4  1  0  0  0
  3 17  1  0  0  0
  4 40  1  0  0  0
  4 41  1  0  0  0
  4  5  1  0  0  0
  5 10  2  0  0  0
  5  6  1  0  0  0
  6 42  1  0  0  0
  6  7  2  0  0  0
  7 43  1  0  0  0
  7  8  1  0  0  0
  8  9  2  0  0  0
  8 14  1  0  0  0
  9 11  1  0  0  0
  9 10  1  0  0  0
 10 44  1  0  0  0
 11 16  2  0  0  0
 11 12  1  0  0  0
 12 13  2  0  0  0
 13 14  1  0  0  0
 13 15  1  0  0  0
 14 48  1  0  0  0
 15 45  1  0  0  0
 15 46  1  0  0  0
 15 47  1  0  0  0
 17 21  1  0  0  0
 17 18  2  0  0  0
 18 19  1  0  0  0
 19 20  2  0  0  0
 19 49  1  0  0  0
 20 21  1  0  0  0
 20 22  1  0  0  0
 22 23  2  0  0  0
 22 24  1  0  0  0
 24 25  1  0  0  0
 24 50  1  0  0  0
 25 34  1  0  0  0
 25 26  1  0  0  0
 25 31  1  0  0  0
 26 27  1  0  0  0
 26 51  1  0  0  0
 26 52  1  0  0  0
 27 28  1  0  0  0
 27 53  1  0  0  0
 27 54  1  0  0  0
 28 29  2  0  0  0
 28 30  1  0  0  0
 30 55  1  0  0  0
 31 32  2  0  0  0
 31 33  1  0  0  0
 33 56  1  0  0  0
M  END
> <s_m_entry_id>
41939

> <s_m_entry_name>
ligand_docking-pose.299

> <s_m_Source_Path>
/home/csk/Desktop/cluster/DUD-E-result/tysy

> <s_m_Source_File>
ligand_docking-pose.sdf

> <i_m_Source_File_Index>
299

> <i_lp_mmshare_version>
53161

> <i_f3d_flags>
0

> <r_lp_tautomer_probability>
0.116051

> <s_lp_Force_Field>
OPLS_2005

> <r_lp_Energy>
5.527721

> <b_lp_Chiralities_Consistent>
1

> <s_lp_Variant>
61753-2

> <s_i_glide_gridfile>
glide-grid_1syn

> <i_i_glide_lignum>
866

> <i_i_glide_rotatable_bonds>
13

> <r_i_docking_score>
-6.96960566171097

> <r_i_glide_ligand_efficiency>
-0.211200171566999

> <r_i_glide_ligand_efficiency_sa>
-0.677431800012609

> <r_i_glide_ligand_efficiency_ln>
-1.55000421247772

> <r_i_glide_gscore>
-6.96960566171097

> <r_i_glide_lipo>
-2.96739334242454

> <r_i_glide_hbond>
-0.140309865839125

> <r_i_glide_metal>
0

> <r_i_glide_rewards>
-0.778610644264354

> <r_i_glide_evdw>
-59.4721412658691

> <r_i_glide_ecoul>
-6.68971347808838

> <r_i_glide_erotb>
0.902209274040011

> <r_i_glide_esite>
-0.00843699821624759

> <r_i_glide_emodel>
-92.6428666456187

> <r_i_glide_energy>
-66.1618547439575

> <r_i_glide_einternal>
6.24450922012329

> <i_i_glide_confnum>
8

> <i_i_glide_posenum>
3

> <r_i_glide_eff_state_penalty>
0

> <s_user_duplicate_titles>
61753

> <s_m_subgroup_title>
dock_pv

> <s_m_subgroupid>
dock_pv1

> <b_m_subgroup_collapsed>
0

$$$$
151947
                    3D
 Schrodinger Suite 2021-1.
 56 58  0  0  1  0            999 V2000
   18.5920    9.8267   34.0274 C   0  0  0  0  0  0
   18.5921   10.9136   34.5780 C   0  0  0  0  0  0
   18.6716   12.1562   35.3553 C   0  0  0  0  0  0
   17.5721   13.1209   35.1910 N   0  0  0  0  0  0
   17.9776   14.4751   34.7720 C   0  0  0  0  0  0
   17.2928   14.8977   33.4765 C   0  0  0  0  0  0
   17.5704   14.2255   32.2848 C   0  0  0  0  0  0
   16.9385   14.5871   31.0972 C   0  0  0  0  0  0
   15.9995   15.6468   31.0836 C   0  0  0  0  0  0
   15.7259   16.3555   32.2943 C   0  0  0  0  0  0
   16.3982   15.9680   33.4785 C   0  0  0  0  0  0
   14.7903   17.4273   32.2415 C   0  0  0  0  0  0
   14.1892   17.7399   31.0255 C   0  0  0  0  0  0
   14.5148   17.0021   29.8913 C   0  0  0  0  0  0
   15.3945   15.9709   29.9070 N   0  0  0  0  0  0
   13.7923   17.4348   28.3891 Cl  0  0  0  0  0  0
   14.4008   18.3719   33.6388 Cl  0  0  0  0  0  0
   16.2716   12.8799   35.7373 C   0  0  0  0  0  0
   15.3773   13.9334   35.9911 C   0  0  0  0  0  0
   14.0648   13.6966   36.3905 C   0  0  0  0  0  0
   13.5979   12.3877   36.5360 C   0  0  0  0  0  0
   14.5043   11.3318   36.3947 C   0  0  0  0  0  0
   15.8192   11.5799   36.0175 C   0  0  0  0  0  0
   12.1309   12.1374   36.7923 C   0  0  0  0  0  0
   11.4356   12.9692   37.3776 O   0  0  0  0  0  0
   11.6457   10.9888   36.2869 N   0  0  0  0  0  0
   10.2494   10.5378   36.3387 C   0  0  1  0  0  0
    9.4769   11.0657   35.0948 C   0  0  0  0  0  0
    9.9938   10.5789   33.7159 C   0  0  0  0  0  0
    9.1990   11.1648   32.5455 C   0  0  0  0  0  0
    8.4763   12.1542   32.6416 O   0  0  0  0  0  0
    9.3920   10.4875   31.3754 O   0  0  0  0  0  0
   10.1410    9.0093   36.5560 C   0  0  0  0  0  0
    9.3370    8.2966   35.9932 O   0  0  0  0  0  0
   11.0466    8.5752   37.4786 O   0  0  0  0  0  0
    9.7834   10.9756   37.2235 H   0  0  0  0  0  0
   18.6463    8.8630   33.5866 H   0  0  0  0  0  0
   19.6385   12.5943   35.1052 H   0  0  0  0  0  0
   18.7339   11.8527   36.3909 H   0  0  0  0  0  0
   19.0526   14.5336   34.5955 H   0  0  0  0  0  0
   17.7901   15.1921   35.5722 H   0  0  0  0  0  0
   18.2761   13.4045   32.2810 H   0  0  0  0  0  0
   17.1538   14.0512   30.1832 H   0  0  0  0  0  0
   16.1931   16.5049   34.3905 H   0  0  0  0  0  0
   13.4900   18.5613   30.9588 H   0  0  0  0  0  0
   15.6686   14.9611   35.8672 H   0  0  0  0  0  0
   13.4006   14.5396   36.5232 H   0  0  0  0  0  0
   14.1993   10.3059   36.5444 H   0  0  0  0  0  0
   16.4506   10.7179   35.9038 H   0  0  0  0  0  0
   12.2821   10.3597   35.8243 H   0  0  0  0  0  0
    8.4205   10.8067   35.1904 H   0  0  0  0  0  0
    9.4968   12.1574   35.1144 H   0  0  0  0  0  0
   11.0357   10.8660   33.5925 H   0  0  0  0  0  0
    9.9510    9.4910   33.6583 H   0  0  0  0  0  0
    9.9915    9.7346   31.4137 H   0  0  0  0  0  0
   10.9609    7.6271   37.5972 H   0  0  0  0  0  0
  1  2  3  0  0  0
  1 37  1  0  0  0
  2  3  1  0  0  0
  3  4  1  0  0  0
  3 38  1  0  0  0
  3 39  1  0  0  0
  4  5  1  0  0  0
  4 18  1  0  0  0
  5  6  1  0  0  0
  5 40  1  0  0  0
  5 41  1  0  0  0
  6 11  1  0  0  0
  6  7  2  0  0  0
  7  8  1  0  0  0
  7 42  1  0  0  0
  8  9  2  0  0  0
  8 43  1  0  0  0
  9 15  1  0  0  0
  9 10  1  0  0  0
 10 11  2  0  0  0
 10 12  1  0  0  0
 11 44  1  0  0  0
 12 13  2  0  0  0
 12 17  1  0  0  0
 13 14  1  0  0  0
 13 45  1  0  0  0
 14 15  2  0  0  0
 14 16  1  0  0  0
 18 23  1  0  0  0
 18 19  2  0  0  0
 19 20  1  0  0  0
 19 46  1  0  0  0
 20 21  2  0  0  0
 20 47  1  0  0  0
 21 22  1  0  0  0
 21 24  1  0  0  0
 22 23  2  0  0  0
 22 48  1  0  0  0
 23 49  1  0  0  0
 24 25  2  0  0  0
 24 26  1  0  0  0
 26 27  1  0  0  0
 26 50  1  0  0  0
 27 36  1  0  0  0
 27 28  1  0  0  0
 27 33  1  0  0  0
 28 29  1  0  0  0
 28 51  1  0  0  0
 28 52  1  0  0  0
 29 30  1  0  0  0
 29 53  1  0  0  0
 29 54  1  0  0  0
 30 31  2  0  0  0
 30 32  1  0  0  0
 32 55  1  0  0  0
 33 34  2  0  0  0
 33 35  1  0  0  0
 35 56  1  0  0  0
M  END
> <s_m_entry_id>
41940

> <s_m_entry_name>
ligand_docking-pose.300

> <s_m_Source_Path>
/home/csk/Desktop/cluster/DUD-E-result/tysy

> <s_m_Source_File>
ligand_docking-pose.sdf

> <i_m_Source_File_Index>
300

> <i_lp_mmshare_version>
53161

> <i_f3d_flags>
0

> <r_lp_tautomer_probability>
1

> <s_lp_Force_Field>
OPLS_2005

> <r_lp_Energy>
16.801152

> <b_lp_Chiralities_Consistent>
1

> <s_lp_Variant>
151947-1

> <s_i_glide_gridfile>
glide-grid_1syn

> <i_i_glide_lignum>
760

> <i_i_glide_rotatable_bonds>
14

> <r_i_docking_score>
-6.95588162362256

> <r_i_glide_ligand_efficiency>
-0.198739474960644

> <r_i_glide_ligand_efficiency_sa>
-0.650090000277901

> <r_i_glide_ligand_efficiency_ln>
-1.52697039386015

> <r_i_glide_gscore>
-6.95588162362256

> <r_i_glide_lipo>
-4.10159321385409

> <r_i_glide_hbond>
0

> <r_i_glide_metal>
0

> <r_i_glide_rewards>
-0.588858140045204

> <r_i_glide_evdw>
-54.2338066101074

> <r_i_glide_ecoul>
-3.21804094314575

> <r_i_glide_erotb>
0.930384074936737

> <r_i_glide_esite>
-0.00141787268276035

> <r_i_glide_emodel>
-76.4131021529552

> <r_i_glide_energy>
-57.4518475532532

> <r_i_glide_einternal>
12.6216707229614

> <i_i_glide_confnum>
21

> <i_i_glide_posenum>
193

> <r_i_glide_eff_state_penalty>
0

> <s_user_duplicate_titles>
151947

> <s_m_subgroup_title>
dock_pv

> <s_m_subgroupid>
dock_pv1

> <b_m_subgroup_collapsed>
0

$$$$
268328
                    3D
 Schrodinger Suite 2021-1.
 68 71  0  0  1  0            999 V2000
   13.4306    8.1392   35.8647 C   0  0  0  0  0  0
   12.4547    9.3017   35.9838 C   0  0  0  0  0  0
   11.6523    9.5684   34.8818 C   0  0  0  0  0  0
   10.6162   10.4744   34.9654 C   0  0  0  0  0  0
   10.3798   11.1794   36.1451 C   0  0  0  0  0  0
   11.2367   10.9937   37.2387 C   0  0  0  0  0  0
   12.2887   10.0666   37.1610 C   0  0  0  0  0  0
   13.2070    9.9271   38.3790 C   0  0  0  0  0  0
   14.6316    9.8144   38.0341 N   0  0  0  0  0  0
   15.3707    8.6812   38.5891 C   0  0  0  0  0  0
   15.2764   10.7657   37.1960 C   0  0  0  0  0  0
   16.4258   10.4312   36.4695 C   0  0  0  0  0  0
   17.0836   11.3772   35.6855 C   0  0  0  0  0  0
   16.6130   12.6958   35.5932 C   0  0  0  0  0  0
   15.4371   13.0270   36.2947 C   0  0  0  0  0  0
   14.7842   12.0697   37.0714 C   0  0  0  0  0  0
   14.9001   14.2695   36.2548 F   0  0  0  0  0  0
   17.3884   13.6879   34.7464 C   0  0  0  0  0  0
   18.4930   13.3937   34.2912 O   0  0  0  0  0  0
   16.7994   14.8651   34.4816 N   0  0  0  0  0  0
   17.2451   15.8245   33.4702 C   0  0  0  0  0  0
   16.4770   15.6478   32.1692 C   0  0  0  0  0  0
   16.9513   14.7794   31.1802 C   0  0  0  0  0  0
   16.2402   14.6232   29.9916 C   0  0  0  0  0  0
   15.0670   15.3413   29.7732 C   0  0  0  0  0  0
   14.5813   16.2277   30.7454 C   0  0  0  0  0  0
   15.3068   16.3801   31.9382 C   0  0  0  0  0  0
   13.3224   16.9752   30.5243 N   0  3  0  0  0  0
   13.0499   17.8980   31.2862 O   0  5  0  0  0  0
   12.5951   16.6302   29.5959 O   0  0  0  0  0  0
    9.1933   12.1307   36.2136 C   0  0  0  0  0  0
    8.4354   12.2281   35.0366 N   0  0  0  0  0  0
    8.7437   11.5968   33.9652 C   0  0  0  0  0  0
    9.7787   10.6908   33.8763 N   0  0  0  0  0  0
    7.9251   11.8359   32.6939 C   0  0  0  0  0  0
    8.7221   12.3846   31.5766 N   0  0  0  0  0  0
    9.1905   11.3309   30.6722 C   0  0  0  0  0  0
    7.9708   13.3791   30.8137 C   0  0  0  0  0  0
    8.9639   12.7391   37.2583 O   0  0  0  0  0  0
   13.0598    7.3864   35.1687 H   0  0  0  0  0  0
   14.4110    8.4775   35.5282 H   0  0  0  0  0  0
   13.5348    7.6162   36.8138 H   0  0  0  0  0  0
   11.7935    9.0281   33.9643 H   0  0  0  0  0  0
   11.0827   11.5582   38.1471 H   0  0  0  0  0  0
   12.8698    9.0551   38.9401 H   0  0  0  0  0  0
   13.0836   10.7719   39.0566 H   0  0  0  0  0  0
   16.1937    9.0345   39.2081 H   0  0  0  0  0  0
   14.7439    8.0455   39.2180 H   0  0  0  0  0  0
   15.7823    8.0516   37.8016 H   0  0  0  0  0  0
   16.8185    9.4281   36.4880 H   0  0  0  0  0  0
   17.9698   11.0689   35.1469 H   0  0  0  0  0  0
   13.8963   12.3705   37.6041 H   0  0  0  0  0  0
   15.9175   15.0521   34.9389 H   0  0  0  0  0  0
   18.3151   15.7359   33.2640 H   0  0  0  0  0  0
   17.1057   16.8395   33.8457 H   0  0  0  0  0  0
   17.8562   14.2105   31.3411 H   0  0  0  0  0  0
   16.5923   13.9355   29.2372 H   0  0  0  0  0  0
   14.5358   15.1953   28.8446 H   0  0  0  0  0  0
   14.9483   17.0551   32.7015 H   0  0  0  0  0  0
    7.4135   10.9164   32.3966 H   0  0  0  0  0  0
    7.1170   12.5293   32.9392 H   0  0  0  0  0  0
    9.7916   11.7523   29.8655 H   0  0  0  0  0  0
    9.8187   10.6058   31.1902 H   0  0  0  0  0  0
    8.3555   10.7837   30.2294 H   0  0  0  0  0  0
    8.5716   13.7832   29.9947 H   0  0  0  0  0  0
    7.0568   12.9559   30.3912 H   0  0  0  0  0  0
    7.6935   14.2197   31.4529 H   0  0  0  0  0  0
    9.9591   10.2187   33.0056 H   0  0  0  0  0  0
  1 40  1  0  0  0
  1 41  1  0  0  0
  1 42  1  0  0  0
  1  2  1  0  0  0
  2  7  1  0  0  0
  2  3  2  0  0  0
  3 43  1  0  0  0
  3  4  1  0  0  0
  4  5  2  0  0  0
  4 34  1  0  0  0
  5 31  1  0  0  0
  5  6  1  0  0  0
  6 44  1  0  0  0
  6  7  2  0  0  0
  7  8  1  0  0  0
  8  9  1  0  0  0
  8 45  1  0  0  0
  8 46  1  0  0  0
  9 10  1  0  0  0
  9 11  1  0  0  0
 10 47  1  0  0  0
 10 48  1  0  0  0
 10 49  1  0  0  0
 11 16  1  0  0  0
 11 12  2  0  0  0
 12 13  1  0  0  0
 12 50  1  0  0  0
 13 14  2  0  0  0
 13 51  1  0  0  0
 14 15  1  0  0  0
 14 18  1  0  0  0
 15 16  2  0  0  0
 15 17  1  0  0  0
 16 52  1  0  0  0
 18 19  2  0  0  0
 18 20  1  0  0  0
 20 21  1  0  0  0
 20 53  1  0  0  0
 21 22  1  0  0  0
 21 54  1  0  0  0
 21 55  1  0  0  0
 22 27  1  0  0  0
 22 23  2  0  0  0
 23 24  1  0  0  0
 23 56  1  0  0  0
 24 25  2  0  0  0
 24 57  1  0  0  0
 25 26  1  0  0  0
 25 58  1  0  0  0
 26 27  2  0  0  0
 26 28  1  0  0  0
 27 59  1  0  0  0
 28 29  1  0  0  0
 28 30  2  0  0  0
 31 39  2  0  0  0
 31 32  1  0  0  0
 32 33  2  0  0  0
 33 34  1  0  0  0
 33 35  1  0  0  0
 34 68  1  0  0  0
 35 36  1  0  0  0
 35 60  1  0  0  0
 35 61  1  0  0  0
 36 37  1  0  0  0
 36 38  1  0  0  0
 37 62  1  0  0  0
 37 63  1  0  0  0
 37 64  1  0  0  0
 38 65  1  0  0  0
 38 66  1  0  0  0
 38 67  1  0  0  0
M  CHG  2  28   1  29  -1
M  END
> <s_m_entry_id>
41942

> <s_m_entry_name>
ligand_docking-pose.302

> <s_m_Source_Path>
/home/csk/Desktop/cluster/DUD-E-result/tysy

> <s_m_Source_File>
ligand_docking-pose.sdf

> <i_m_Source_File_Index>
302

> <i_lp_mmshare_version>
53161

> <i_f3d_flags>
0

> <r_lp_tautomer_probability>
0.116051

> <s_lp_Force_Field>
OPLS_2005

> <r_lp_Energy>
30.726157

> <b_lp_Chiralities_Consistent>
1

> <s_lp_Variant>
268328-2

> <s_i_glide_gridfile>
glide-grid_1syn

> <i_i_glide_lignum>
174

> <i_i_glide_rotatable_bonds>
10

> <r_i_docking_score>
-6.9313559418871

> <r_i_glide_ligand_efficiency>
-0.177727075433003

> <r_i_glide_ligand_efficiency_sa>
-0.602710091205819

> <r_i_glide_ligand_efficiency_ln>
-1.48627947217971

> <r_i_glide_gscore>
-6.9313559418871

> <r_i_glide_lipo>
-3.70345483263966

> <r_i_glide_hbond>
0

> <r_i_glide_metal>
0

> <r_i_glide_rewards>
-1.1344834345866

> <r_i_glide_evdw>
-53.6685256958008

> <r_i_glide_ecoul>
0.054697472602129

> <r_i_glide_erotb>
0.581803989238872

> <r_i_glide_esite>
0

> <r_i_glide_emodel>
-69.727012384195

> <r_i_glide_energy>
-53.6138282231987

> <r_i_glide_einternal>
9.09472274780273

> <i_i_glide_confnum>
2

> <i_i_glide_posenum>
71

> <r_i_glide_eff_state_penalty>
0

> <s_user_duplicate_titles>
268328

> <s_m_subgroup_title>
dock_pv

> <s_m_subgroupid>
dock_pv1

> <b_m_subgroup_collapsed>
0

$$$$
268315
                    3D
 Schrodinger Suite 2021-1.
 67 70  0  0  1  0            999 V2000
    9.3911    9.5326   32.4159 C   0  0  0  0  0  0
    7.9212    8.9186   33.4032 S   0  0  0  0  0  0
    6.7978    9.8318   33.1778 O   0  0  0  0  0  0
    7.7900    7.4752   33.1847 O   0  0  0  0  0  0
    8.4563    9.1358   35.0568 N   0  0  2  0  0  0
    8.7050   10.5086   35.5561 C   0  0  0  0  0  0
   10.1687   10.7866   35.8845 C   0  0  0  0  0  0
   11.1054    9.9490   35.6034 N   0  0  0  0  0  0
   12.4372   10.2562   35.9203 C   0  0  0  0  0  0
   13.4319    9.3353   35.5951 C   0  0  0  0  0  0
   14.7692    9.6255   35.8897 C   0  0  0  0  0  0
   15.1107   10.8308   36.5181 C   0  0  0  0  0  0
   14.1039   11.7340   36.8808 C   0  0  0  0  0  0
   12.7779   11.4526   36.5577 C   0  0  0  0  0  0
   11.6708   12.4284   36.8791 C   0  0  0  0  0  0
   10.4555   11.9804   36.4864 N   0  0  0  0  0  0
   11.7971   13.5129   37.4384 O   0  0  0  0  0  0
   16.5567   11.1169   36.9025 C   0  0  0  0  0  0
   17.4468   11.4541   35.7881 N   0  0  0  0  0  0
   18.6338   10.6063   35.6159 C   0  0  0  0  0  0
   18.6020    9.8669   34.3528 C   0  0  0  0  0  0
   18.5921    9.4280   33.2178 C   0  0  0  0  0  0
   17.3795   12.7267   35.1443 C   0  0  0  0  0  0
   18.1571   13.0102   34.0092 C   0  0  0  0  0  0
   17.9107   14.1367   33.2396 C   0  0  0  0  0  0
   16.9030   15.0278   33.6171 C   0  0  0  0  0  0
   16.2657   14.8727   34.8446 C   0  0  0  0  0  0
   16.5026   13.7279   35.5932 C   0  0  0  0  0  0
   16.4143   16.0673   32.6623 C   0  0  0  0  0  0
   16.1915   17.2213   33.0230 O   0  0  0  0  0  0
   16.1916   15.5697   31.4344 N   0  0  0  0  0  0
   15.6493   16.2342   30.2594 C   0  0  0  0  0  0
   14.2380   16.7772   30.3703 C   0  0  0  0  0  0
   13.2364   16.0965   29.6852 C   0  0  0  0  0  0
   11.9647   16.6408   29.5910 C   0  0  0  0  0  0
   11.6944   17.8469   30.2143 C   0  0  0  0  0  0
   12.6357   18.4976   31.0117 C   0  0  0  0  0  0
   13.9391   17.9824   31.0324 C   0  0  0  0  0  0
   12.2267   19.6553   31.8458 N   0  3  0  0  0  0
   11.1307   19.6247   32.3911 O   0  5  0  0  0  0
   12.9920   20.5915   31.9911 O   0  0  0  0  0  0
    9.2304    9.2981   31.3649 H   0  0  0  0  0  0
   10.2803    9.0295   32.7909 H   0  0  0  0  0  0
    9.4866   10.6080   32.5497 H   0  0  0  0  0  0
    9.1785    8.4707   35.3456 H   0  0  0  0  0  0
    8.3645   11.2245   34.8065 H   0  0  0  0  0  0
    8.0781   10.6626   36.4352 H   0  0  0  0  0  0
   13.1593    8.4096   35.1107 H   0  0  0  0  0  0
   15.5423    8.9188   35.6233 H   0  0  0  0  0  0
   14.3423   12.6438   37.4134 H   0  0  0  0  0  0
    9.7076   12.6239   36.6852 H   0  0  0  0  0  0
   16.5872   11.9521   37.5909 H   0  0  0  0  0  0
   16.9207   10.2475   37.4529 H   0  0  0  0  0  0
   19.5445   11.2069   35.6540 H   0  0  0  0  0  0
   18.7363    9.8697   36.4112 H   0  0  0  0  0  0
   18.5923    9.1027   32.2017 H   0  0  0  0  0  0
   18.9093   12.3344   33.6358 H   0  0  0  0  0  0
   18.4638   14.2663   32.3186 H   0  0  0  0  0  0
   15.5174   15.5795   35.1778 H   0  0  0  0  0  0
   15.9500   13.6315   36.5074 H   0  0  0  0  0  0
   16.4154   14.5932   31.3120 H   0  0  0  0  0  0
   16.2838   17.0280   29.9148 H   0  0  0  0  0  0
   15.6998   15.5098   29.4446 H   0  0  0  0  0  0
   13.4586   15.1605   29.1927 H   0  0  0  0  0  0
   11.1715   16.1421   29.0544 H   0  0  0  0  0  0
   10.6922   18.2270   30.1353 H   0  0  0  0  0  0
   14.7058   18.5156   31.5754 H   0  0  0  0  0  0
  1  2  1  0  0  0
  1 42  1  0  0  0
  1 43  1  0  0  0
  1 44  1  0  0  0
  2  3  2  0  0  0
  2  4  2  0  0  0
  2  5  1  0  0  0
  5  6  1  0  0  0
  5 45  1  0  0  0
  6 46  1  0  0  0
  6 47  1  0  0  0
  6  7  1  0  0  0
  7  8  2  0  0  0
  7 16  1  0  0  0
  8  9  1  0  0  0
  9 14  2  0  0  0
  9 10  1  0  0  0
 10 11  2  0  0  0
 10 48  1  0  0  0
 11 12  1  0  0  0
 11 49  1  0  0  0
 12 13  2  0  0  0
 12 18  1  0  0  0
 13 14  1  0  0  0
 13 50  1  0  0  0
 14 15  1  0  0  0
 15 17  2  0  0  0
 15 16  1  0  0  0
 16 51  1  0  0  0
 18 19  1  0  0  0
 18 52  1  0  0  0
 18 53  1  0  0  0
 19 20  1  0  0  0
 19 23  1  0  0  0
 20 21  1  0  0  0
 20 54  1  0  0  0
 20 55  1  0  0  0
 21 22  3  0  0  0
 22 56  1  0  0  0
 23 28  1  0  0  0
 23 24  2  0  0  0
 24 25  1  0  0  0
 24 57  1  0  0  0
 25 26  2  0  0  0
 25 58  1  0  0  0
 26 27  1  0  0  0
 26 29  1  0  0  0
 27 28  2  0  0  0
 27 59  1  0  0  0
 28 60  1  0  0  0
 29 30  2  0  0  0
 29 31  1  0  0  0
 31 32  1  0  0  0
 31 61  1  0  0  0
 32 33  1  0  0  0
 32 62  1  0  0  0
 32 63  1  0  0  0
 33 38  1  0  0  0
 33 34  2  0  0  0
 34 35  1  0  0  0
 34 64  1  0  0  0
 35 36  2  0  0  0
 35 65  1  0  0  0
 36 37  1  0  0  0
 36 66  1  0  0  0
 37 38  2  0  0  0
 37 39  1  0  0  0
 38 67  1  0  0  0
 39 40  1  0  0  0
 39 41  2  0  0  0
M  CHG  2  39   1  40  -1
M  END
> <s_m_entry_id>
41943

> <s_m_entry_name>
ligand_docking-pose.303

> <s_m_Source_Path>
/home/csk/Desktop/cluster/DUD-E-result/tysy

> <s_m_Source_File>
ligand_docking-pose.sdf

> <i_m_Source_File_Index>
303

> <i_lp_mmshare_version>
53161

> <i_f3d_flags>
0

> <r_lp_tautomer_probability>
0.883938

> <s_lp_Force_Field>
OPLS_2005

> <r_lp_Energy>
22.770459

> <b_lp_Chiralities_Consistent>
1

> <s_lp_Variant>
268315-1

> <s_i_glide_gridfile>
glide-grid_1syn

> <i_i_glide_lignum>
1012

> <i_i_glide_rotatable_bonds>
13

> <r_i_docking_score>
-6.92085701349181

> <r_i_glide_ligand_efficiency>
-0.168801390572971

> <r_i_glide_ligand_efficiency_sa>
-0.582063864453786

> <r_i_glide_ligand_efficiency_ln>
-1.4682828469685

> <r_i_glide_gscore>
-6.92085701349181

> <r_i_glide_lipo>
-2.82968644284196

> <r_i_glide_hbond>
0

> <r_i_glide_metal>
0

> <r_i_glide_rewards>
-1.4802305325719

> <r_i_glide_evdw>
-46.6970176696777

> <r_i_glide_ecoul>
-5.32139110565186

> <r_i_glide_erotb>
0.600929208189983

> <r_i_glide_esite>
-0.0788096969362655

> <r_i_glide_emodel>
-54.0576269766854

> <r_i_glide_energy>
-52.0184087753296

> <r_i_glide_einternal>
7.64171171188354

> <i_i_glide_confnum>
3

> <i_i_glide_posenum>
274

> <r_i_glide_eff_state_penalty>
0

> <s_user_duplicate_titles>
268315

> <s_m_subgroup_title>
dock_pv

> <s_m_subgroupid>
dock_pv1

> <b_m_subgroup_collapsed>
0

$$$$
549
                    3D
 Schrodinger Suite 2021-1.
 28 29  0  0  1  0            999 V2000
   15.5597   15.8207   31.3934 C   0  0  0  0  0  0
   14.6482   15.9820   30.4129 C   0  0  0  0  0  0
   13.6606   17.0441   30.5418 C   0  0  0  0  0  0
   12.7805   17.2794   29.7180 O   0  0  0  0  0  0
   13.7969   17.7652   31.6936 N   0  0  0  0  0  0
   14.6961   17.6240   32.7197 C   0  0  0  0  0  0
   14.6366   18.3587   33.7058 O   0  0  0  0  0  0
   15.6169   16.6124   32.5187 N   0  0  0  0  0  0
   16.5963   16.3439   33.5646 C   0  0  1  0  0  0
   16.1804   15.3744   34.6565 C   0  0  0  0  0  0
   17.5225   14.7896   35.1010 C   0  0  2  0  0  0
   18.5810   15.3046   34.0976 C   0  0  2  0  0  0
   17.7826   15.8281   33.0510 O   0  0  0  0  0  0
   19.5096   14.2527   33.4557 C   0  0  0  0  0  0
   20.4821   13.8281   34.3909 O   0  0  0  0  0  0
   17.4252   13.3796   35.2076 O   0  0  0  0  0  0
   14.6222   15.1786   29.3266 F   0  0  0  0  0  0
   13.1248   18.5096   31.8127 H   0  0  0  0  0  0
   16.3149   15.0478   31.3625 H   0  0  0  0  0  0
   16.8579   17.3168   33.9897 H   0  0  0  0  0  0
   15.5182   14.6280   34.2249 H   0  0  0  0  0  0
   15.6448   15.8903   35.4550 H   0  0  0  0  0  0
   17.7744   15.1840   36.0860 H   0  0  0  0  0  0
   19.1732   16.1283   34.5024 H   0  0  0  0  0  0
   20.0326   14.6856   32.6006 H   0  0  0  0  0  0
   18.9520   13.3988   33.0644 H   0  0  0  0  0  0
   20.9907   13.1156   33.9629 H   0  0  0  0  0  0
   18.3177   13.0209   35.2520 H   0  0  0  0  0  0
  1  8  1  0  0  0
  1  2  2  0  0  0
  1 19  1  0  0  0
  2  3  1  0  0  0
  2 17  1  0  0  0
  3  4  2  0  0  0
  3  5  1  0  0  0
  5 18  1  0  0  0
  5  6  1  0  0  0
  6  7  2  0  0  0
  6  8  1  0  0  0
  8  9  1  0  0  0
  9 13  1  0  0  0
  9 10  1  0  0  0
  9 20  1  0  0  0
 10 11  1  0  0  0
 10 21  1  0  0  0
 10 22  1  0  0  0
 11 12  1  0  0  0
 11 16  1  0  0  0
 11 23  1  0  0  0
 12 13  1  0  0  0
 12 14  1  0  0  0
 12 24  1  0  0  0
 14 15  1  0  0  0
 14 25  1  0  0  0
 14 26  1  0  0  0
 15 27  1  0  0  0
 16 28  1  0  0  0
M  END
> <s_m_entry_id>
41944

> <s_m_entry_name>
ligand_docking-pose.304

> <s_m_Source_Path>
/home/csk/Desktop/cluster/DUD-E-result/tysy

> <s_m_Source_File>
ligand_docking-pose.sdf

> <i_m_Source_File_Index>
304

> <i_lp_mmshare_version>
53161

> <i_f3d_flags>
0

> <r_lp_tautomer_probability>
0.999537046341301

> <s_lp_Force_Field>
OPLS_2005

> <r_lp_Energy>
30.312025

> <b_lp_Chiralities_Consistent>
1

> <s_lp_Variant>
549-8

> <s_i_glide_gridfile>
glide-grid_1syn

> <i_i_glide_lignum>
105

> <i_i_glide_rotatable_bonds>
4

> <r_i_docking_score>
-6.90748379754651

> <r_i_glide_ligand_efficiency>
-0.406322576326265

> <r_i_glide_ligand_efficiency_sa>
-1.04476975938987

> <r_i_glide_ligand_efficiency_ln>
-1.80200870067857

> <r_i_glide_gscore>
-6.90748379754651

> <r_i_glide_lipo>
-1.66264123399899

> <r_i_glide_hbond>
0

> <r_i_glide_metal>
0

> <r_i_glide_rewards>
-3.37696123080804

> <r_i_glide_evdw>
-32.2123184204102

> <r_i_glide_ecoul>
-5.54787063598633

> <r_i_glide_erotb>
0.574915183678977

> <r_i_glide_esite>
0

> <r_i_glide_emodel>
-52.5895159427478

> <r_i_glide_energy>
-37.7601890563965

> <r_i_glide_einternal>
4.05672025680542

> <i_i_glide_confnum>
7

> <i_i_glide_posenum>
321

> <r_i_glide_eff_state_penalty>
0

> <s_user_duplicate_titles>
549

> <s_m_subgroup_title>
dock_pv

> <s_m_subgroupid>
dock_pv1

> <b_m_subgroup_collapsed>
0

$$$$
292
                    3D
 Schrodinger Suite 2021-1.
 62 65  0  0  1  0            999 V2000
   12.9153   18.7759   28.9557 C   0  0  0  0  0  0
   13.5767   17.9709   30.0510 C   0  0  0  0  0  0
   13.3920   18.2803   31.2798 N   0  0  0  0  0  0
   14.0198   17.5330   32.2862 C   0  0  0  0  0  0
   13.8101   17.8986   33.6098 C   0  0  0  0  0  0
   14.3717   17.1393   34.6353 C   0  0  0  0  0  0
   15.1520   16.0090   34.3647 C   0  0  0  0  0  0
   15.3919   15.6690   33.0230 C   0  0  0  0  0  0
   14.8179   16.4239   31.9945 C   0  0  0  0  0  0
   15.0206   16.0691   30.5381 C   0  0  0  0  0  0
   14.3544   16.9019   29.7011 N   0  0  0  0  0  0
   15.7095   15.1541   30.0996 O   0  0  0  0  0  0
   15.6422   15.1795   35.5657 C   0  0  0  0  0  0
   16.5221   14.0305   35.2742 N   0  0  0  0  0  0
   17.9375   14.3506   35.0079 C   0  0  0  0  0  0
   18.3493   14.2543   33.6001 C   0  0  0  0  0  0
   18.6840   14.2347   32.4266 C   0  0  0  0  0  0
   16.1310   12.6905   35.5910 C   0  0  0  0  0  0
   17.0031   11.6059   35.3851 C   0  0  0  0  0  0
   16.5933   10.2887   35.5947 C   0  0  0  0  0  0
   15.3013   10.0133   36.0535 C   0  0  0  0  0  0
   14.4350   11.0827   36.3022 C   0  0  0  0  0  0
   14.8399   12.3889   36.0601 C   0  0  0  0  0  0
   14.8465    8.5827   36.2164 C   0  0  0  0  0  0
   15.3917    7.6705   35.5999 O   0  0  0  0  0  0
   13.8286    8.3651   37.0668 N   0  0  0  0  0  0
   13.2610    7.0464   37.4087 C   0  0  2  0  0  0
   11.7707    7.1628   37.6595 C   0  0  0  0  0  0
   10.9188    6.1549   37.1943 C   0  0  0  0  0  0
    9.5435    6.2386   37.3957 C   0  0  0  0  0  0
    9.0025    7.3316   38.0697 C   0  0  0  0  0  0
    9.8302    8.3517   38.5604 C   0  0  0  0  0  0
   11.2138    8.2498   38.3501 C   0  0  0  0  0  0
    9.2573    9.5149   39.2808 N   0  3  0  0  0  0
   10.0208   10.3844   39.6941 O   0  5  0  0  0  0
    8.0424    9.5636   39.4459 O   0  0  0  0  0  0
   14.0027    6.3751   38.5887 C   0  0  0  0  0  0
   14.7385    6.9530   39.3661 O   0  0  0  0  0  0
   13.6813    5.0511   38.6427 O   0  0  0  0  0  0
   13.4060    6.3853   36.5483 H   0  0  0  0  0  0
   11.8906   18.4384   28.7966 H   0  0  0  0  0  0
   12.8668   19.8318   29.2225 H   0  0  0  0  0  0
   13.4555   18.7004   28.0096 H   0  0  0  0  0  0
   13.2046   18.7646   33.8393 H   0  0  0  0  0  0
   14.1914   17.4316   35.6551 H   0  0  0  0  0  0
   15.9507   14.7839   32.7700 H   0  0  0  0  0  0
   14.4776   16.6815   28.7275 H   0  0  0  0  0  0
   16.1918   15.8257   36.2367 H   0  0  0  0  0  0
   14.7701   14.9395   36.1626 H   0  0  0  0  0  0
   18.1649   15.3718   35.3151 H   0  0  0  0  0  0
   18.6035   13.7239   35.5925 H   0  0  0  0  0  0
   18.9926   14.2290   31.4059 H   0  0  0  0  0  0
   17.9990   11.7541   34.9989 H   0  0  0  0  0  0
   17.2785    9.4779   35.3752 H   0  0  0  0  0  0
   13.4178   10.9204   36.6286 H   0  0  0  0  0  0
   14.0842   13.1367   36.2161 H   0  0  0  0  0  0
   13.4948    9.1455   37.6075 H   0  0  0  0  0  0
   11.3219    5.3033   36.6642 H   0  0  0  0  0  0
    8.8969    5.4574   37.0223 H   0  0  0  0  0  0
    7.9320    7.3776   38.2083 H   0  0  0  0  0  0
   11.8647    9.0240   38.7294 H   0  0  0  0  0  0
   14.1208    4.6281   39.3818 H   0  0  0  0  0  0
  1 41  1  0  0  0
  1 42  1  0  0  0
  1 43  1  0  0  0
  1  2  1  0  0  0
  2  3  2  0  0  0
  2 11  1  0  0  0
  3  4  1  0  0  0
  4  9  2  0  0  0
  4  5  1  0  0  0
  5  6  2  0  0  0
  5 44  1  0  0  0
  6  7  1  0  0  0
  6 45  1  0  0  0
  7  8  2  0  0  0
  7 13  1  0  0  0
  8  9  1  0  0  0
  8 46  1  0  0  0
  9 10  1  0  0  0
 10 12  2  0  0  0
 10 11  1  0  0  0
 11 47  1  0  0  0
 13 14  1  0  0  0
 13 48  1  0  0  0
 13 49  1  0  0  0
 14 15  1  0  0  0
 14 18  1  0  0  0
 15 16  1  0  0  0
 15 50  1  0  0  0
 15 51  1  0  0  0
 16 17  3  0  0  0
 17 52  1  0  0  0
 18 23  1  0  0  0
 18 19  2  0  0  0
 19 20  1  0  0  0
 19 53  1  0  0  0
 20 21  2  0  0  0
 20 54  1  0  0  0
 21 22  1  0  0  0
 21 24  1  0  0  0
 22 23  2  0  0  0
 22 55  1  0  0  0
 23 56  1  0  0  0
 24 25  2  0  0  0
 24 26  1  0  0  0
 26 27  1  0  0  0
 26 57  1  0  0  0
 27 40  1  0  0  0
 27 28  1  0  0  0
 27 37  1  0  0  0
 28 33  1  0  0  0
 28 29  2  0  0  0
 29 30  1  0  0  0
 29 58  1  0  0  0
 30 31  2  0  0  0
 30 59  1  0  0  0
 31 32  1  0  0  0
 31 60  1  0  0  0
 32 33  2  0  0  0
 32 34  1  0  0  0
 33 61  1  0  0  0
 34 35  1  0  0  0
 34 36  2  0  0  0
 37 38  2  0  0  0
 37 39  1  0  0  0
 39 62  1  0  0  0
M  CHG  2  34   1  35  -1
M  END
> <s_m_entry_id>
41945

> <s_m_entry_name>
ligand_docking-pose.305

> <s_m_Source_Path>
/home/csk/Desktop/cluster/DUD-E-result/tysy

> <s_m_Source_File>
ligand_docking-pose.sdf

> <i_m_Source_File_Index>
305

> <i_lp_mmshare_version>
53161

> <i_f3d_flags>
0

> <r_lp_tautomer_probability>
0.883938

> <s_lp_Force_Field>
OPLS_2005

> <r_lp_Energy>
26.490498

> <b_lp_Chiralities_Consistent>
1

> <s_lp_Variant>
292-1

> <s_i_glide_gridfile>
glide-grid_1syn

> <i_i_glide_lignum>
564

> <i_i_glide_rotatable_bonds>
12

> <r_i_docking_score>
-6.89935410792879

> <r_i_glide_ligand_efficiency>
-0.176906515587918

> <r_i_glide_ligand_efficiency_sa>
-0.599927399272887

> <r_i_glide_ligand_efficiency_ln>
-1.47941737055297

> <r_i_glide_gscore>
-6.89935410792879

> <r_i_glide_lipo>
-3.48728901344654

> <r_i_glide_hbond>
0

> <r_i_glide_metal>
0

> <r_i_glide_rewards>
-0.825778044143343

> <r_i_glide_evdw>
-55.2909622192383

> <r_i_glide_ecoul>
-3.60086941719055

> <r_i_glide_erotb>
0.74532831195329

> <r_i_glide_esite>
-0.0269368387517032

> <r_i_glide_emodel>
-78.6879633599876

> <r_i_glide_energy>
-58.8918316364288

> <r_i_glide_einternal>
8.41210556030273

> <i_i_glide_confnum>
45

> <i_i_glide_posenum>
358

> <r_i_glide_eff_state_penalty>
0

> <s_user_duplicate_titles>
292

> <s_m_subgroup_title>
dock_pv

> <s_m_subgroupid>
dock_pv1

> <b_m_subgroup_collapsed>
0

$$$$
354
                    3D
 Schrodinger Suite 2021-1.
 59 62  0  0  1  0            999 V2000
    8.7359   10.0224   34.4827 C   0  0  0  0  0  0
   10.0720   10.3427   35.1099 C   0  0  0  0  0  0
   11.0852    9.4280   34.9093 N   0  0  0  0  0  0
   12.3581    9.6566   35.4189 C   0  0  0  0  0  0
   13.3922    8.7555   35.1910 C   0  0  0  0  0  0
   14.6853    9.0758   35.6062 C   0  0  0  0  0  0
   14.9263   10.2747   36.2887 C   0  0  0  0  0  0
   13.8587   11.1311   36.5927 C   0  0  0  0  0  0
   12.5723   10.8346   36.1368 C   0  0  0  0  0  0
   11.4063   11.7837   36.3909 C   0  0  0  0  0  0
   10.1936   11.4197   35.7886 N   0  0  0  0  0  0
   11.5793   12.7853   37.0844 O   0  0  0  0  0  0
   16.3247   10.5845   36.7957 C   0  0  0  0  0  0
   17.2309   11.2183   35.8248 N   0  0  0  0  0  0
   18.5377   10.5919   35.5910 C   0  0  0  0  0  0
   18.5920    9.8856   34.3100 C   0  0  0  0  0  0
   18.5920    9.4280   33.1819 C   0  0  0  0  0  0
   17.0356   12.5552   35.3832 C   0  0  0  0  0  0
   16.1753   13.4119   36.0744 C   0  0  0  0  0  0
   15.8698   14.6706   35.5901 C   0  0  0  0  0  0
   16.4347   15.1214   34.3910 C   0  0  0  0  0  0
   17.3920   14.3239   33.7532 C   0  0  0  0  0  0
   17.6938   13.0602   34.2503 C   0  0  0  0  0  0
   16.0174   16.4341   33.7759 C   0  0  0  0  0  0
   16.5919   16.8903   32.7910 O   0  0  0  0  0  0
   14.9793   17.0583   34.3603 N   0  0  0  0  0  0
   14.3751   18.3084   33.9070 C   0  0  0  0  0  0
   13.6019   18.2672   32.5904 C   0  0  0  0  0  0
   12.9920   19.4334   32.1201 C   0  0  0  0  0  0
   12.2681   19.4211   30.9291 C   0  0  0  0  0  0
   12.1332   18.2379   30.2042 C   0  0  0  0  0  0
   12.7211   17.0596   30.6740 C   0  0  0  0  0  0
   13.4623   17.0883   31.8521 C   0  0  0  0  0  0
   12.5197   15.7783   29.9914 N   0  3  0  0  0  0
   11.3920   15.5172   29.5910 O   0  5  0  0  0  0
   13.4823   15.0279   29.8838 O   0  0  0  0  0  0
    8.0105   10.8218   34.6400 H   0  0  0  0  0  0
    8.8383    9.8814   33.4066 H   0  0  0  0  0  0
    8.3186    9.1096   34.9064 H   0  0  0  0  0  0
   13.1926    7.8354   34.6678 H   0  0  0  0  0  0
   15.4994    8.3956   35.4009 H   0  0  0  0  0  0
   14.0178   12.0255   37.1749 H   0  0  0  0  0  0
   10.9470    8.5663   34.3817 H   0  0  0  0  0  0
   16.2247   11.2073   37.6799 H   0  0  0  0  0  0
   16.7509    9.6524   37.1559 H   0  0  0  0  0  0
   19.3432   11.3275   35.6332 H   0  0  0  0  0  0
   18.7731    9.8670   36.3707 H   0  0  0  0  0  0
   18.5921    9.0831   32.1719 H   0  0  0  0  0  0
   15.7392   13.1332   37.0151 H   0  0  0  0  0  0
   15.1785   15.2714   36.1629 H   0  0  0  0  0  0
   17.8763   14.6530   32.8435 H   0  0  0  0  0  0
   18.4022   12.4668   33.6932 H   0  0  0  0  0  0
   14.5107   16.5864   35.1165 H   0  0  0  0  0  0
   13.6788   18.6280   34.6827 H   0  0  0  0  0  0
   15.1370   19.0878   33.8523 H   0  0  0  0  0  0
   13.0758   20.3547   32.6803 H   0  0  0  0  0  0
   11.7920   20.3237   30.5738 H   0  0  0  0  0  0
   11.5389   18.2400   29.3005 H   0  0  0  0  0  0
   13.8934   16.1636   32.2005 H   0  0  0  0  0  0
  1 37  1  0  0  0
  1 38  1  0  0  0
  1 39  1  0  0  0
  1  2  1  0  0  0
  2  3  1  0  0  0
  2 11  2  0  0  0
  3  4  1  0  0  0
  3 43  1  0  0  0
  4  9  2  0  0  0
  4  5  1  0  0  0
  5  6  2  0  0  0
  5 40  1  0  0  0
  6  7  1  0  0  0
  6 41  1  0  0  0
  7  8  2  0  0  0
  7 13  1  0  0  0
  8  9  1  0  0  0
  8 42  1  0  0  0
  9 10  1  0  0  0
 10 12  2  0  0  0
 10 11  1  0  0  0
 13 14  1  0  0  0
 13 44  1  0  0  0
 13 45  1  0  0  0
 14 15  1  0  0  0
 14 18  1  0  0  0
 15 16  1  0  0  0
 15 46  1  0  0  0
 15 47  1  0  0  0
 16 17  3  0  0  0
 17 48  1  0  0  0
 18 23  1  0  0  0
 18 19  2  0  0  0
 19 20  1  0  0  0
 19 49  1  0  0  0
 20 21  2  0  0  0
 20 50  1  0  0  0
 21 22  1  0  0  0
 21 24  1  0  0  0
 22 23  2  0  0  0
 22 51  1  0  0  0
 23 52  1  0  0  0
 24 25  2  0  0  0
 24 26  1  0  0  0
 26 27  1  0  0  0
 26 53  1  0  0  0
 27 28  1  0  0  0
 27 54  1  0  0  0
 27 55  1  0  0  0
 28 33  1  0  0  0
 28 29  2  0  0  0
 29 30  1  0  0  0
 29 56  1  0  0  0
 30 31  2  0  0  0
 30 57  1  0  0  0
 31 32  1  0  0  0
 31 58  1  0  0  0
 32 33  2  0  0  0
 32 34  1  0  0  0
 33 59  1  0  0  0
 34 35  1  0  0  0
 34 36  2  0  0  0
M  CHG  2  34   1  35  -1
M  END
> <s_m_entry_id>
41947

> <s_m_entry_name>
ligand_docking-pose.307

> <s_m_Source_Path>
/home/csk/Desktop/cluster/DUD-E-result/tysy

> <s_m_Source_File>
ligand_docking-pose.sdf

> <i_m_Source_File_Index>
307

> <i_lp_mmshare_version>
53161

> <i_f3d_flags>
0

> <r_lp_tautomer_probability>
0.116051

> <s_lp_Force_Field>
OPLS_2005

> <r_lp_Energy>
25.566002

> <b_lp_Chiralities_Consistent>
1

> <s_lp_Variant>
354-2

> <s_i_glide_gridfile>
glide-grid_1syn

> <i_i_glide_lignum>
539

> <i_i_glide_rotatable_bonds>
10

> <r_i_docking_score>
-6.88993773800139

> <r_i_glide_ligand_efficiency>
-0.191387159388928

> <r_i_glide_ligand_efficiency_sa>
-0.631946475919975

> <r_i_glide_ligand_efficiency_ln>
-1.50319826982588

> <r_i_glide_gscore>
-6.88993773800139

> <r_i_glide_lipo>
-2.83915217884736

> <r_i_glide_hbond>
-0.32

> <r_i_glide_metal>
0

> <r_i_glide_rewards>
-0.989149308300923

> <r_i_glide_evdw>
-49.8469200134277

> <r_i_glide_ecoul>
-6.08575534820557

> <r_i_glide_erotb>
0.787513964122054

> <r_i_glide_esite>
-0.123940912072942

> <r_i_glide_emodel>
-75.0083611855428

> <r_i_glide_energy>
-55.9326753616333

> <r_i_glide_einternal>
3.92335987091064

> <i_i_glide_confnum>
29

> <i_i_glide_posenum>
69

> <r_i_glide_eff_state_penalty>
0

> <s_user_duplicate_titles>
354

> <s_m_subgroup_title>
dock_pv

> <s_m_subgroupid>
dock_pv1

> <b_m_subgroup_collapsed>
0

$$$$
429
                    3D
 Schrodinger Suite 2021-1.
 60 63  0  0  1  0            999 V2000
   12.6303   18.5425   29.0866 C   0  0  0  0  0  0
   13.6037   17.6734   29.8484 C   0  0  0  0  0  0
   13.5507   17.7449   31.2247 N   0  0  0  0  0  0
   14.4496   17.0090   32.0002 C   0  0  0  0  0  0
   14.4429   17.1066   33.3836 C   0  0  0  0  0  0
   15.4056   16.4237   34.1234 C   0  0  0  0  0  0
   16.3853   15.6378   33.4920 C   0  0  0  0  0  0
   16.3541   15.5084   32.0962 C   0  0  0  0  0  0
   15.3875   16.2008   31.3469 C   0  0  0  0  0  0
   15.3722   16.1319   29.8249 C   0  0  0  0  0  0
   14.4116   16.9331   29.1913 N   0  0  0  0  0  0
   16.1919   15.4277   29.2429 O   0  0  0  0  0  0
   17.5587   15.0383   34.2844 C   0  0  0  0  0  0
   17.4265   13.6074   34.6201 N   0  0  0  0  0  0
   18.3710   12.6856   33.9510 C   0  0  0  0  0  0
   18.9345   11.6026   34.7912 C   0  0  0  0  0  0
   19.3674   10.6597   35.4358 C   0  0  0  0  0  0
   16.3975   13.1633   35.5030 C   0  0  0  0  0  0
   15.9516   11.8327   35.5178 C   0  0  0  0  0  0
   14.9714   11.4029   36.4029 C   0  0  0  0  0  0
   14.3929   12.3027   37.3007 C   0  0  0  0  0  0
   14.7919   13.6462   37.2578 C   0  0  0  0  0  0
   15.7928   14.0550   36.3905 C   0  0  0  0  0  0
   13.4194   11.8000   38.3384 C   0  0  0  0  0  0
   13.2598   10.5948   38.5397 O   0  0  0  0  0  0
   12.7884   12.7459   39.0546 N   0  0  0  0  0  0
   11.8677   12.5138   40.1703 C   0  0  2  0  0  0
   10.4905   12.2039   39.6062 C   0  0  0  0  0  0
    9.6659   13.2068   39.0772 C   0  0  0  0  0  0
    8.4092   12.8965   38.5674 C   0  0  0  0  0  0
    7.9746   11.5741   38.5693 C   0  0  0  0  0  0
    8.7888   10.5618   39.0723 C   0  0  0  0  0  0
   10.0439   10.8768   39.5872 C   0  0  0  0  0  0
   11.9494   13.7018   41.1617 C   0  0  0  0  0  0
   10.9917   14.3031   41.5912 O   0  0  0  0  0  0
   13.2492   13.9388   41.5105 O   0  0  0  0  0  0
   12.2340   11.6578   40.7436 H   0  0  0  0  0  0
   12.8384   18.5412   28.0156 H   0  0  0  0  0  0
   11.6052   18.2011   29.2302 H   0  0  0  0  0  0
   12.6866   19.5773   29.4236 H   0  0  0  0  0  0
   13.7226   17.7366   33.8842 H   0  0  0  0  0  0
   15.3949   16.5646   35.1918 H   0  0  0  0  0  0
   17.1091   14.9088   31.6023 H   0  0  0  0  0  0
   12.8974   18.3671   31.6714 H   0  0  0  0  0  0
   18.4536   15.1966   33.6800 H   0  0  0  0  0  0
   17.7601   15.6063   35.1897 H   0  0  0  0  0  0
   17.8805   12.2281   33.0939 H   0  0  0  0  0  0
   19.2354   13.2212   33.5551 H   0  0  0  0  0  0
   19.7543    9.8318   35.9824 H   0  0  0  0  0  0
   16.3471   11.1124   34.8195 H   0  0  0  0  0  0
   14.6793   10.3619   36.3902 H   0  0  0  0  0  0
   14.4007   14.3880   37.9383 H   0  0  0  0  0  0
   16.1287   15.0722   36.4669 H   0  0  0  0  0  0
   12.8843   13.7036   38.7529 H   0  0  0  0  0  0
    9.9978   14.2304   39.0574 H   0  0  0  0  0  0
    7.7803   13.6786   38.1663 H   0  0  0  0  0  0
    7.0018   11.3302   38.1672 H   0  0  0  0  0  0
    8.4506    9.5361   39.0564 H   0  0  0  0  0  0
   10.6722   10.0818   39.9632 H   0  0  0  0  0  0
   13.8478   13.3565   41.0369 H   0  0  0  0  0  0
  1 38  1  0  0  0
  1 39  1  0  0  0
  1 40  1  0  0  0
  1  2  1  0  0  0
  2  3  1  0  0  0
  2 11  2  0  0  0
  3  4  1  0  0  0
  3 44  1  0  0  0
  4  9  2  0  0  0
  4  5  1  0  0  0
  5  6  2  0  0  0
  5 41  1  0  0  0
  6  7  1  0  0  0
  6 42  1  0  0  0
  7  8  2  0  0  0
  7 13  1  0  0  0
  8  9  1  0  0  0
  8 43  1  0  0  0
  9 10  1  0  0  0
 10 12  2  0  0  0
 10 11  1  0  0  0
 13 14  1  0  0  0
 13 45  1  0  0  0
 13 46  1  0  0  0
 14 15  1  0  0  0
 14 18  1  0  0  0
 15 16  1  0  0  0
 15 47  1  0  0  0
 15 48  1  0  0  0
 16 17  3  0  0  0
 17 49  1  0  0  0
 18 23  1  0  0  0
 18 19  2  0  0  0
 19 20  1  0  0  0
 19 50  1  0  0  0
 20 21  2  0  0  0
 20 51  1  0  0  0
 21 22  1  0  0  0
 21 24  1  0  0  0
 22 23  2  0  0  0
 22 52  1  0  0  0
 23 53  1  0  0  0
 24 25  2  0  0  0
 24 26  1  0  0  0
 26 27  1  0  0  0
 26 54  1  0  0  0
 27 37  1  0  0  0
 27 28  1  0  0  0
 27 34  1  0  0  0
 28 33  1  0  0  0
 28 29  2  0  0  0
 29 30  1  0  0  0
 29 55  1  0  0  0
 30 31  2  0  0  0
 30 56  1  0  0  0
 31 32  1  0  0  0
 31 57  1  0  0  0
 32 33  2  0  0  0
 32 58  1  0  0  0
 33 59  1  0  0  0
 34 35  2  0  0  0
 34 36  1  0  0  0
 36 60  1  0  0  0
M  END
> <s_m_entry_id>
41949

> <s_m_entry_name>
ligand_docking-pose.309

> <s_m_Source_Path>
/home/csk/Desktop/cluster/DUD-E-result/tysy

> <s_m_Source_File>
ligand_docking-pose.sdf

> <i_m_Source_File_Index>
309

> <i_lp_mmshare_version>
53161

> <i_f3d_flags>
0

> <r_lp_tautomer_probability>
0.116051

> <s_lp_Force_Field>
OPLS_2005

> <r_lp_Energy>
22.112953

> <b_lp_Chiralities_Consistent>
1

> <s_lp_Variant>
429-2

> <s_i_glide_gridfile>
glide-grid_1syn

> <i_i_glide_lignum>
561

> <i_i_glide_rotatable_bonds>
11

> <r_i_docking_score>
-6.88387469337972

> <r_i_glide_ligand_efficiency>
-0.19121874148277

> <r_i_glide_ligand_efficiency_sa>
-0.631390372247095

> <r_i_glide_ligand_efficiency_ln>
-1.50187547729397

> <r_i_glide_gscore>
-6.88387469337972

> <r_i_glide_lipo>
-3.36262093952724

> <r_i_glide_hbond>
-0.0284599847777582

> <r_i_glide_metal>
0

> <r_i_glide_rewards>
-0.666290314962242

> <r_i_glide_evdw>
-57.9629859924316

> <r_i_glide_ecoul>
-4.50960779190063

> <r_i_glide_erotb>
0.790476430670559

> <r_i_glide_esite>
-0.0423894163763608

> <r_i_glide_emodel>
-86.6307934779113

> <r_i_glide_energy>
-62.4725937843323

> <r_i_glide_einternal>
5.31454038619995

> <i_i_glide_confnum>
6

> <i_i_glide_posenum>
237

> <r_i_glide_eff_state_penalty>
0

> <s_user_duplicate_titles>
429

> <s_m_subgroup_title>
dock_pv

> <s_m_subgroupid>
dock_pv1

> <b_m_subgroup_collapsed>
0

$$$$
282114
                    3D
 Schrodinger Suite 2021-1.
 69 71  0  0  1  0            999 V2000
    8.5905    9.8893   30.6406 C   0  0  0  0  0  0
    8.7530   10.4106   32.0502 C   0  0  0  0  0  0
    9.7918    9.8824   32.7899 N   0  0  0  0  0  0
   10.0375   10.3344   34.0869 C   0  0  0  0  0  0
   11.0881    9.8287   34.8431 C   0  0  0  0  0  0
   11.3010   10.3119   36.1338 C   0  0  0  0  0  0
   10.4793   11.3172   36.6671 C   0  0  0  0  0  0
    9.4192   11.8175   35.9020 C   0  0  0  0  0  0
    9.1957   11.3244   34.6088 C   0  0  0  0  0  0
    8.0515   11.8579   33.7558 C   0  0  0  0  0  0
    7.9499   11.3112   32.4703 N   0  0  0  0  0  0
    7.3014   12.7136   34.2235 O   0  0  0  0  0  0
   10.7122   11.8758   38.0744 C   0  0  0  0  0  0
   12.1374   11.9737   38.4411 N   0  0  0  0  0  0
   12.6158   11.1290   39.5445 C   0  0  0  0  0  0
   13.0196   11.9024   40.7354 C   0  0  0  0  0  0
   13.3926   12.5316   41.7143 C   0  0  0  0  0  0
   13.0293   12.7386   37.6327 C   0  0  0  0  0  0
   14.4092   12.4842   37.6176 C   0  0  0  0  0  0
   15.2683   13.2052   36.7900 C   0  0  0  0  0  0
   14.7614   14.2105   35.9603 C   0  0  0  0  0  0
   13.3949   14.4916   35.9910 C   0  0  0  0  0  0
   12.5414   13.7639   36.8113 C   0  0  0  0  0  0
   15.6402   14.9843   35.0143 C   0  0  0  0  0  0
   15.3919   16.1688   34.7915 O   0  0  0  0  0  0
   16.5920   14.2535   34.3910 N   0  0  0  0  0  0
   17.5422   14.6394   33.3332 C   0  0  1  0  0  0
   17.0079   15.6644   32.2747 C   0  0  0  0  0  0
   16.2807   15.0582   31.0427 C   0  0  0  0  0  0
   14.9160   15.6627   30.6343 C   0  0  0  0  0  0
   14.2437   15.0813   29.7829 O   0  0  0  0  0  0
   14.5072   16.8126   31.2045 N   0  0  0  0  0  0
   13.2752   17.5517   30.8806 C   0  0  1  0  0  0
   13.0205   18.5619   32.0199 C   0  0  0  0  0  0
   13.3028   18.2278   29.4845 C   0  0  0  0  0  0
   14.1921   18.0821   28.6737 O   0  0  0  0  0  0
   12.1919   18.9957   29.2815 O   0  0  0  0  0  0
   18.8468   15.1087   33.9905 C   0  0  0  0  0  0
   18.9912   16.2371   34.3910 O   0  0  0  0  0  0
   19.7952   14.1248   34.0271 O   0  0  0  0  0  0
   17.7817   13.7243   32.7884 H   0  0  0  0  0  0
   12.4605   16.8253   30.8642 H   0  0  0  0  0  0
    7.6388   10.1909   30.1974 H   0  0  0  0  0  0
    9.3886   10.2643   29.9969 H   0  0  0  0  0  0
    8.6292    8.7985   30.6163 H   0  0  0  0  0  0
   11.7290    9.0596   34.4375 H   0  0  0  0  0  0
   12.1175    9.9110   36.7175 H   0  0  0  0  0  0
    8.7794   12.5880   36.3134 H   0  0  0  0  0  0
   10.3878    9.1892   32.3599 H   0  0  0  0  0  0
   10.2426   12.8538   38.1872 H   0  0  0  0  0  0
   10.1786   11.2241   38.7670 H   0  0  0  0  0  0
   11.8376   10.4370   39.8695 H   0  0  0  0  0  0
   13.4404   10.4904   39.2291 H   0  0  0  0  0  0
   13.7559   13.0766   42.5572 H   0  0  0  0  0  0
   14.8433   11.7168   38.2362 H   0  0  0  0  0  0
   16.3255   12.9780   36.8111 H   0  0  0  0  0  0
   12.9768   15.2681   35.3643 H   0  0  0  0  0  0
   11.4927   14.0159   36.7913 H   0  0  0  0  0  0
   16.6750   13.2938   34.6857 H   0  0  0  0  0  0
   16.4506   16.4648   32.7453 H   0  0  0  0  0  0
   17.8313   16.2278   31.8634 H   0  0  0  0  0  0
   16.9396   15.1213   30.1753 H   0  0  0  0  0  0
   16.1919   13.9821   31.1762 H   0  0  0  0  0  0
   15.0962   17.2465   31.8987 H   0  0  0  0  0  0
   12.0551   19.0585   31.9171 H   0  0  0  0  0  0
   13.0206   18.0674   32.9928 H   0  0  0  0  0  0
   13.7891   19.3372   32.0428 H   0  0  0  0  0  0
   11.5437   19.0093   29.9906 H   0  0  0  0  0  0
   19.6115   13.3260   33.5223 H   0  0  0  0  0  0
  1 43  1  0  0  0
  1 44  1  0  0  0
  1 45  1  0  0  0
  1  2  1  0  0  0
  2  3  1  0  0  0
  2 11  2  0  0  0
  3  4  1  0  0  0
  3 49  1  0  0  0
  4  9  2  0  0  0
  4  5  1  0  0  0
  5  6  2  0  0  0
  5 46  1  0  0  0
  6  7  1  0  0  0
  6 47  1  0  0  0
  7  8  2  0  0  0
  7 13  1  0  0  0
  8  9  1  0  0  0
  8 48  1  0  0  0
  9 10  1  0  0  0
 10 12  2  0  0  0
 10 11  1  0  0  0
 13 14  1  0  0  0
 13 50  1  0  0  0
 13 51  1  0  0  0
 14 15  1  0  0  0
 14 18  1  0  0  0
 15 16  1  0  0  0
 15 52  1  0  0  0
 15 53  1  0  0  0
 16 17  3  0  0  0
 17 54  1  0  0  0
 18 23  1  0  0  0
 18 19  2  0  0  0
 19 20  1  0  0  0
 19 55  1  0  0  0
 20 21  2  0  0  0
 20 56  1  0  0  0
 21 22  1  0  0  0
 21 24  1  0  0  0
 22 23  2  0  0  0
 22 57  1  0  0  0
 23 58  1  0  0  0
 24 25  2  0  0  0
 24 26  1  0  0  0
 26 27  1  0  0  0
 26 59  1  0  0  0
 27 41  1  0  0  0
 27 28  1  0  0  0
 27 38  1  0  0  0
 28 29  1  0  0  0
 28 60  1  0  0  0
 28 61  1  0  0  0
 29 30  1  0  0  0
 29 62  1  0  0  0
 29 63  1  0  0  0
 30 31  2  0  0  0
 30 32  1  0  0  0
 32 33  1  0  0  0
 32 64  1  0  0  0
 33 42  1  0  0  0
 33 34  1  0  0  0
 33 35  1  0  0  0
 34 65  1  0  0  0
 34 66  1  0  0  0
 34 67  1  0  0  0
 35 36  2  0  0  0
 35 37  1  0  0  0
 37 68  1  0  0  0
 38 39  2  0  0  0
 38 40  1  0  0  0
 40 69  1  0  0  0
M  END
> <s_m_entry_id>
41950

> <s_m_entry_name>
ligand_docking-pose.310

> <s_m_Source_Path>
/home/csk/Desktop/cluster/DUD-E-result/tysy

> <s_m_Source_File>
ligand_docking-pose.sdf

> <i_m_Source_File_Index>
310

> <i_lp_mmshare_version>
53161

> <i_f3d_flags>
0

> <r_lp_tautomer_probability>
0.116051

> <s_lp_Force_Field>
OPLS_2005

> <r_lp_Energy>
18.726694

> <b_lp_Chiralities_Consistent>
1

> <s_lp_Variant>
282114-2

> <s_i_glide_gridfile>
glide-grid_1syn

> <i_i_glide_lignum>
587

> <i_i_glide_rotatable_bonds>
17

> <r_i_docking_score>
-6.87874680597469

> <r_i_glide_ligand_efficiency>
-0.171968670149367

> <r_i_glide_ligand_efficiency_sa>
-0.588124578351621

> <r_i_glide_ligand_efficiency_ln>
-1.46703426123259

> <r_i_glide_gscore>
-6.87874680597469

> <r_i_glide_lipo>
-2.20653392740466

> <r_i_glide_hbond>
-0.267191390079717

> <r_i_glide_metal>
0

> <r_i_glide_rewards>
-1.40835760390176

> <r_i_glide_evdw>
-56.6402435302734

> <r_i_glide_ecoul>
-7.93849992752075

> <r_i_glide_erotb>
1.03644639142796

> <r_i_glide_esite>
-0.0103231103747352

> <r_i_glide_emodel>
-85.8174732353907

> <r_i_glide_energy>
-64.5787434577942

> <r_i_glide_einternal>
13.0491399765015

> <i_i_glide_confnum>
46

> <i_i_glide_posenum>
375

> <r_i_glide_eff_state_penalty>
0

> <s_user_duplicate_titles>
282114

> <s_m_subgroup_title>
dock_pv

> <s_m_subgroupid>
dock_pv1

> <b_m_subgroup_collapsed>
0

$$$$
281877
                    3D
 Schrodinger Suite 2021-1.
 73 75  0  0  1  0            999 V2000
   11.1903   15.9342   41.9915 C   0  0  0  0  0  0
   11.7912   14.6053   41.6099 C   0  0  0  0  0  0
   11.0779   13.8156   40.7347 N   0  0  0  0  0  0
   11.5942   12.5812   40.3298 C   0  0  0  0  0  0
   10.9211   11.7903   39.4050 C   0  0  0  0  0  0
   11.5084   10.6063   38.9557 C   0  0  0  0  0  0
   12.7674   10.2163   39.4337 C   0  0  0  0  0  0
   13.3937   10.9669   40.4332 C   0  0  0  0  0  0
   12.8203   12.1685   40.8670 C   0  0  0  0  0  0
   13.5368   13.0630   41.8708 C   0  0  0  0  0  0
   12.9055   14.2844   42.1455 N   0  0  0  0  0  0
   14.5829   12.6854   42.3918 O   0  0  0  0  0  0
   13.4852    9.0115   38.8317 C   0  0  0  0  0  0
   13.7196    9.0885   37.3758 N   0  0  0  0  0  0
   13.7557    7.7865   36.7061 C   0  0  0  0  0  0
   14.5786   10.1040   36.8652 C   0  0  0  0  0  0
   14.2561   11.4549   37.0413 C   0  0  0  0  0  0
   15.0468   12.4620   36.5060 C   0  0  0  0  0  0
   16.1916   12.1548   35.7630 C   0  0  0  0  0  0
   16.5399   10.8081   35.5927 C   0  0  0  0  0  0
   15.7335    9.8008   36.1242 C   0  0  0  0  0  0
   16.9903   13.2885   35.1586 C   0  0  0  0  0  0
   16.8541   14.4289   35.6044 O   0  0  0  0  0  0
   17.7623   13.0067   34.0829 N   0  0  0  0  0  0
   18.5760   13.9642   33.3107 C   0  0  1  0  0  0
   17.7399   15.0800   32.6188 C   0  0  0  0  0  0
   16.8237   14.6273   31.4555 C   0  0  0  0  0  0
   15.5197   15.4282   31.2480 C   0  0  0  0  0  0
   14.8535   15.2038   30.2414 O   0  0  0  0  0  0
   15.1451   16.3150   32.1881 N   0  0  0  0  0  0
   13.9770   17.2056   32.1830 C   0  0  2  0  0  0
   14.2167   18.3777   31.1935 C   0  0  0  0  0  0
   13.8160   18.1835   29.7207 C   0  0  0  0  0  0
   12.3042   18.1412   29.5825 C   0  0  0  0  0  0
   11.6399   17.1086   29.5910 O   0  0  0  0  0  0
   11.7920   19.3950   29.4572 O   0  0  0  0  0  0
   13.7200   17.7498   33.6102 C   0  0  0  0  0  0
   14.3795   17.4612   34.5890 O   0  0  0  0  0  0
   12.6749   18.6280   33.5910 O   0  0  0  0  0  0
   19.6089   14.6111   34.2441 C   0  0  0  0  0  0
   19.3920   15.6724   34.7910 O   0  0  0  0  0  0
   20.7230   13.8288   34.3910 O   0  0  0  0  0  0
   19.1170   13.4277   32.5319 H   0  0  0  0  0  0
   13.0924   16.6305   31.9070 H   0  0  0  0  0  0
   11.7921   16.4358   42.7498 H   0  0  0  0  0  0
   11.0483   16.6277   41.1912 H   0  0  0  0  0  0
   10.1927   15.8276   42.3909 H   0  0  0  0  0  0
    9.9760   12.1108   38.9930 H   0  0  0  0  0  0
   11.0193   10.0182   38.1909 H   0  0  0  0  0  0
   14.3492   10.6363   40.8190 H   0  0  0  0  0  0
   10.2299   14.1550   40.3098 H   0  0  0  0  0  0
   12.9089    8.1183   39.0791 H   0  0  0  0  0  0
   14.4530    8.8869   39.3210 H   0  0  0  0  0  0
   14.6445    7.2211   36.9898 H   0  0  0  0  0  0
   12.8743    7.1940   36.9556 H   0  0  0  0  0  0
   13.7624    7.9062   35.6211 H   0  0  0  0  0  0
   13.3612   11.7625   37.5520 H   0  0  0  0  0  0
   14.7437   13.4894   36.6559 H   0  0  0  0  0  0
   17.4252   10.5261   35.0386 H   0  0  0  0  0  0
   16.0239    8.7782   35.9498 H   0  0  0  0  0  0
   17.8240   12.0511   33.7708 H   0  0  0  0  0  0
   18.4133   15.8274   32.2054 H   0  0  0  0  0  0
   17.1903   15.6248   33.3860 H   0  0  0  0  0  0
   16.5921   13.5690   31.5679 H   0  0  0  0  0  0
   17.3907   14.6753   30.5253 H   0  0  0  0  0  0
   15.7071   16.3969   33.0231 H   0  0  0  0  0  0
   15.2678   18.6280   31.2482 H   0  0  0  0  0  0
   13.7270   19.2932   31.5320 H   0  0  0  0  0  0
   14.2511   17.2968   29.2720 H   0  0  0  0  0  0
   14.1873   19.0233   29.1297 H   0  0  0  0  0  0
   10.8203   19.4274   29.4732 H   0  0  0  0  0  0
   12.6537   19.2104   34.3660 H   0  0  0  0  0  0
   20.7885   13.0575   33.8048 H   0  0  0  0  0  0
  1 45  1  0  0  0
  1 46  1  0  0  0
  1 47  1  0  0  0
  1  2  1  0  0  0
  2  3  1  0  0  0
  2 11  2  0  0  0
  3  4  1  0  0  0
  3 51  1  0  0  0
  4  9  2  0  0  0
  4  5  1  0  0  0
  5  6  2  0  0  0
  5 48  1  0  0  0
  6  7  1  0  0  0
  6 49  1  0  0  0
  7  8  2  0  0  0
  7 13  1  0  0  0
  8  9  1  0  0  0
  8 50  1  0  0  0
  9 10  1  0  0  0
 10 12  2  0  0  0
 10 11  1  0  0  0
 13 14  1  0  0  0
 13 52  1  0  0  0
 13 53  1  0  0  0
 14 15  1  0  0  0
 14 16  1  0  0  0
 15 54  1  0  0  0
 15 55  1  0  0  0
 15 56  1  0  0  0
 16 21  1  0  0  0
 16 17  2  0  0  0
 17 18  1  0  0  0
 17 57  1  0  0  0
 18 19  2  0  0  0
 18 58  1  0  0  0
 19 20  1  0  0  0
 19 22  1  0  0  0
 20 21  2  0  0  0
 20 59  1  0  0  0
 21 60  1  0  0  0
 22 23  2  0  0  0
 22 24  1  0  0  0
 24 25  1  0  0  0
 24 61  1  0  0  0
 25 43  1  0  0  0
 25 26  1  0  0  0
 25 40  1  0  0  0
 26 27  1  0  0  0
 26 62  1  0  0  0
 26 63  1  0  0  0
 27 28  1  0  0  0
 27 64  1  0  0  0
 27 65  1  0  0  0
 28 29  2  0  0  0
 28 30  1  0  0  0
 30 31  1  0  0  0
 30 66  1  0  0  0
 31 44  1  0  0  0
 31 32  1  0  0  0
 31 37  1  0  0  0
 32 33  1  0  0  0
 32 67  1  0  0  0
 32 68  1  0  0  0
 33 34  1  0  0  0
 33 69  1  0  0  0
 33 70  1  0  0  0
 34 35  2  0  0  0
 34 36  1  0  0  0
 36 71  1  0  0  0
 37 38  2  0  0  0
 37 39  1  0  0  0
 39 72  1  0  0  0
 40 41  2  0  0  0
 40 42  1  0  0  0
 42 73  1  0  0  0
M  END
> <s_m_entry_id>
41951

> <s_m_entry_name>
ligand_docking-pose.311

> <s_m_Source_Path>
/home/csk/Desktop/cluster/DUD-E-result/tysy

> <s_m_Source_File>
ligand_docking-pose.sdf

> <i_m_Source_File_Index>
311

> <i_lp_mmshare_version>
53161

> <i_f3d_flags>
0

> <r_lp_tautomer_probability>
0.116051

> <s_lp_Force_Field>
OPLS_2005

> <r_lp_Energy>
19.828029

> <b_lp_Chiralities_Consistent>
1

> <s_lp_Variant>
281877-2

> <s_i_glide_gridfile>
glide-grid_1syn

> <i_i_glide_lignum>
485

> <i_i_glide_rotatable_bonds>
19

> <r_i_docking_score>
-6.87135296126764

> <r_i_glide_ligand_efficiency>
-0.163603641934944

> <r_i_glide_ligand_efficiency_sa>
-0.568690617857801

> <r_i_glide_ligand_efficiency_ln>
-1.45036558369332

> <r_i_glide_gscore>
-6.87135296126764

> <r_i_glide_lipo>
-1.8590983023359

> <r_i_glide_hbond>
0

> <r_i_glide_metal>
0

> <r_i_glide_rewards>
-0.588968997112035

> <r_i_glide_evdw>
-55.0664939880371

> <r_i_glide_ecoul>
-16.4977054595947

> <r_i_glide_erotb>
0.888097079100686

> <r_i_glide_esite>
-0.0834022225793295

> <r_i_glide_emodel>
-95.5310068998684

> <r_i_glide_energy>
-71.5641994476318

> <r_i_glide_einternal>
12.9237966537476

> <i_i_glide_confnum>
14

> <i_i_glide_posenum>
54

> <r_i_glide_eff_state_penalty>
0

> <s_user_duplicate_titles>
281877

> <s_m_subgroup_title>
dock_pv

> <s_m_subgroupid>
dock_pv1

> <b_m_subgroup_collapsed>
0

$$$$
152125
                    3D
 Schrodinger Suite 2021-1.
 59 61  0  0  1  0            999 V2000
   20.7646   14.6280   32.1137 C   0  0  0  0  0  0
   20.3849   14.2574   33.2110 C   0  0  0  0  0  0
   19.9579   13.8479   34.5460 C   0  0  0  0  0  0
   18.5051   13.9345   34.7383 N   0  0  0  0  0  0
   17.8873   15.2605   34.6392 C   0  0  0  0  0  0
   16.9905   15.4549   33.4102 C   0  0  0  0  0  0
   17.1722   14.7434   32.2175 C   0  0  0  0  0  0
   16.4287   15.0394   31.0780 C   0  0  0  0  0  0
   15.4589   16.0680   31.1127 C   0  0  0  0  0  0
   15.2208   16.7592   32.3399 C   0  0  0  0  0  0
   15.9996   16.4311   33.4755 C   0  0  0  0  0  0
   14.2227   17.7699   32.3506 C   0  0  0  0  0  0
   13.5589   18.0843   31.1701 C   0  0  0  0  0  0
   13.8858   17.3917   30.0077 C   0  0  0  0  0  0
   14.7949   16.3847   29.9663 N   0  0  0  0  0  0
   13.2153   17.7434   28.6967 C   0  0  0  0  0  0
   13.3920   19.0280   28.3907 F   0  0  0  0  0  0
   13.8277   18.6280   33.7929 Cl  0  0  0  0  0  0
   17.7157   12.8106   35.0958 C   0  0  0  0  0  0
   18.1953   11.5003   34.9683 C   0  0  0  0  0  0
   17.4104   10.4143   35.3450 C   0  0  0  0  0  0
   16.1307   10.6104   35.8768 C   0  0  0  0  0  0
   15.6435   11.9163   35.9910 C   0  0  0  0  0  0
   16.4179   12.9907   35.5958 C   0  0  0  0  0  0
   15.2542    9.4425   36.2516 C   0  0  0  0  0  0
   15.3920    8.3343   35.7322 O   0  0  0  0  0  0
   14.3101    9.7237   37.1677 N   0  0  0  0  0  0
   13.1806    8.8807   37.5625 C   0  0  1  0  0  0
   12.4432    9.5682   38.7447 C   0  0  0  0  0  0
   11.7873   10.9386   38.4179 C   0  0  0  0  0  0
   11.3730   11.7378   39.6552 C   0  0  0  0  0  0
   11.7920   11.5251   40.7910 O   0  0  0  0  0  0
   10.5039   12.7450   39.3555 O   0  0  0  0  0  0
   12.2529    8.6118   36.3553 C   0  0  0  0  0  0
   12.0229    9.4226   35.4803 O   0  0  0  0  0  0
   11.7862    7.3346   36.3910 O   0  0  0  0  0  0
   13.5982    7.9308   37.9039 H   0  0  0  0  0  0
   20.9921   14.9019   31.1100 H   0  0  0  0  0  0
   20.4461   14.5733   35.1910 H   0  0  0  0  0  0
   20.4043   12.8864   34.7910 H   0  0  0  0  0  0
   18.6551   16.0357   34.6069 H   0  0  0  0  0  0
   17.3395   15.4280   35.5632 H   0  0  0  0  0  0
   17.9139   13.9615   32.1519 H   0  0  0  0  0  0
   16.6046   14.4984   30.1584 H   0  0  0  0  0  0
   15.8390   16.9774   34.3910 H   0  0  0  0  0  0
   12.8176   18.8713   31.1532 H   0  0  0  0  0  0
   13.6034   17.1594   27.8615 H   0  0  0  0  0  0
   12.1452   17.5702   28.7910 H   0  0  0  0  0  0
   19.1636   11.2919   34.5396 H   0  0  0  0  0  0
   17.8124    9.4280   35.1911 H   0  0  0  0  0  0
   14.6465   12.1264   36.3502 H   0  0  0  0  0  0
   15.9653   13.9623   35.6998 H   0  0  0  0  0  0
   14.3210   10.6447   37.5743 H   0  0  0  0  0  0
   11.6767    8.8920   39.1278 H   0  0  0  0  0  0
   13.1497    9.6839   39.5691 H   0  0  0  0  0  0
   12.4713   11.5658   37.8466 H   0  0  0  0  0  0
   10.9129   10.7789   37.7857 H   0  0  0  0  0  0
   10.2857   12.7949   38.4217 H   0  0  0  0  0  0
   11.3920    7.1405   35.5285 H   0  0  0  0  0  0
  1  2  3  0  0  0
  1 38  1  0  0  0
  2  3  1  0  0  0
  3  4  1  0  0  0
  3 39  1  0  0  0
  3 40  1  0  0  0
  4  5  1  0  0  0
  4 19  1  0  0  0
  5  6  1  0  0  0
  5 41  1  0  0  0
  5 42  1  0  0  0
  6 11  1  0  0  0
  6  7  2  0  0  0
  7  8  1  0  0  0
  7 43  1  0  0  0
  8  9  2  0  0  0
  8 44  1  0  0  0
  9 15  1  0  0  0
  9 10  1  0  0  0
 10 11  2  0  0  0
 10 12  1  0  0  0
 11 45  1  0  0  0
 12 13  2  0  0  0
 12 18  1  0  0  0
 13 14  1  0  0  0
 13 46  1  0  0  0
 14 15  2  0  0  0
 14 16  1  0  0  0
 16 17  1  0  0  0
 16 47  1  0  0  0
 16 48  1  0  0  0
 19 24  1  0  0  0
 19 20  2  0  0  0
 20 21  1  0  0  0
 20 49  1  0  0  0
 21 22  2  0  0  0
 21 50  1  0  0  0
 22 23  1  0  0  0
 22 25  1  0  0  0
 23 24  2  0  0  0
 23 51  1  0  0  0
 24 52  1  0  0  0
 25 26  2  0  0  0
 25 27  1  0  0  0
 27 28  1  0  0  0
 27 53  1  0  0  0
 28 37  1  0  0  0
 28 29  1  0  0  0
 28 34  1  0  0  0
 29 30  1  0  0  0
 29 54  1  0  0  0
 29 55  1  0  0  0
 30 31  1  0  0  0
 30 56  1  0  0  0
 30 57  1  0  0  0
 31 32  2  0  0  0
 31 33  1  0  0  0
 33 58  1  0  0  0
 34 35  2  0  0  0
 34 36  1  0  0  0
 36 59  1  0  0  0
M  END
> <s_m_entry_id>
41953

> <s_m_entry_name>
ligand_docking-pose.313

> <s_m_Source_Path>
/home/csk/Desktop/cluster/DUD-E-result/tysy

> <s_m_Source_File>
ligand_docking-pose.sdf

> <i_m_Source_File_Index>
313

> <i_lp_mmshare_version>
53161

> <i_f3d_flags>
0

> <r_lp_tautomer_probability>
1

> <s_lp_Force_Field>
OPLS_2005

> <r_lp_Energy>
13.80112

> <b_lp_Chiralities_Consistent>
1

> <s_lp_Variant>
152125-1

> <s_i_glide_gridfile>
glide-grid_1syn

> <i_i_glide_lignum>
758

> <i_i_glide_rotatable_bonds>
15

> <r_i_docking_score>
-6.84451731386918

> <r_i_glide_ligand_efficiency>
-0.190125480940811

> <r_i_glide_ligand_efficiency_sa>
-0.627780505477771

> <r_i_glide_ligand_efficiency_ln>
-1.49328876039828

> <r_i_glide_gscore>
-6.84451731386918

> <r_i_glide_lipo>
-3.89734444446381

> <r_i_glide_hbond>
0

> <r_i_glide_metal>
0

> <r_i_glide_rewards>
-0.759303270532322

> <r_i_glide_evdw>
-41.435676574707

> <r_i_glide_ecoul>
-6.84876680374146

> <r_i_glide_erotb>
0.93850486191481

> <r_i_glide_esite>
-0.0272756114912928

> <r_i_glide_emodel>
-67.7096215116697

> <r_i_glide_energy>
-48.2844433784485

> <r_i_glide_einternal>
6.15718269348145

> <i_i_glide_confnum>
66

> <i_i_glide_posenum>
392

> <r_i_glide_eff_state_penalty>
0

> <s_user_duplicate_titles>
152125

> <s_m_subgroup_title>
dock_pv

> <s_m_subgroupid>
dock_pv1

> <b_m_subgroup_collapsed>
0

$$$$
183727
                    3D
 Schrodinger Suite 2021-1.
 69 71  0  0  1  0            999 V2000
   19.5017   14.4957   33.3370 C   0  0  0  0  0  0
   18.6198   13.6216   34.1965 C   0  0  0  0  0  0
   17.5452   14.0911   34.7181 N   0  0  0  0  0  0
   16.7309   13.2487   35.4937 C   0  0  0  0  0  0
   15.5871   13.7839   36.0800 C   0  0  0  0  0  0
   14.7769   12.9793   36.8854 C   0  0  0  0  0  0
   15.0942   11.6286   37.0899 C   0  0  0  0  0  0
   16.2134   11.0776   36.4580 C   0  0  0  0  0  0
   17.0373   11.8969   35.6833 C   0  0  0  0  0  0
   18.3192   11.3714   35.0818 C   0  0  0  0  0  0
   18.9920   12.3211   34.3906 N   0  0  0  0  0  0
   18.7452   10.2270   35.1935 O   0  0  0  0  0  0
   14.2783   10.7778   38.0612 C   0  0  0  0  0  0
   13.5102    9.7241   37.3731 N   0  0  0  0  0  0
   14.0690    8.3666   37.2290 C   0  0  0  0  0  0
   14.5932    7.7530   38.4631 C   0  0  0  0  0  0
   14.9839    7.1750   39.4649 C   0  0  0  0  0  0
   12.5158   10.1470   36.4501 C   0  0  0  0  0  0
   12.2430    9.4240   35.2836 C   0  0  0  0  0  0
   11.2606    9.8289   34.3917 C   0  0  0  0  0  0
   10.5212   10.9952   34.6181 C   0  0  0  0  0  0
   10.7756   11.7226   35.7938 C   0  0  0  0  0  0
   11.7559   11.2990   36.6872 C   0  0  0  0  0  0
   10.0973   12.8525   36.0979 F   0  0  0  0  0  0
    9.4869   11.4533   33.6165 C   0  0  0  0  0  0
    8.5909   12.2280   33.9476 O   0  0  0  0  0  0
    9.6186   10.9734   32.3614 N   0  0  0  0  0  0
    8.7543   11.2310   31.1999 C   0  0  2  0  0  0
    8.8433   12.7169   30.7185 C   0  0  0  0  0  0
   10.2208   13.0927   30.0839 C   0  0  0  0  0  0
   10.3696   14.5543   29.5910 C   0  0  0  0  0  0
    9.3908   15.0902   29.0800 O   0  0  0  0  0  0
   11.5284   15.2636   29.6587 N   0  0  0  0  0  0
   12.7911   15.0185   30.3908 C   0  0  2  0  0  0
   12.8896   16.0412   31.5450 C   0  0  0  0  0  0
   14.0861   15.1372   29.5491 C   0  0  0  0  0  0
   14.6022   16.1973   29.2575 O   0  0  0  0  0  0
   14.5625   13.9050   29.1910 O   0  0  0  0  0  0
    7.3026   10.7062   31.4248 C   0  0  0  0  0  0
    6.7931   10.5284   32.5114 O   0  0  0  0  0  0
    6.6946   10.3751   30.2500 O   0  0  0  0  0  0
    9.1656   10.6007   30.4087 H   0  0  0  0  0  0
   12.7790   14.0166   30.7906 H   0  0  0  0  0  0
   19.0132   14.7217   32.3898 H   0  0  0  0  0  0
   19.7139   15.4385   33.8375 H   0  0  0  0  0  0
   20.4552   14.0165   33.1108 H   0  0  0  0  0  0
   15.3522   14.8280   35.9384 H   0  0  0  0  0  0
   13.9152   13.4176   37.3670 H   0  0  0  0  0  0
   16.4712   10.0409   36.6226 H   0  0  0  0  0  0
   19.8539   11.9987   33.9510 H   0  0  0  0  0  0
   14.9852   10.3394   38.7660 H   0  0  0  0  0  0
   13.6309   11.3992   38.6789 H   0  0  0  0  0  0
   13.2757    7.6747   36.9435 H   0  0  0  0  0  0
   14.8258    8.3326   36.4449 H   0  0  0  0  0  0
   15.2875    6.6308   40.3297 H   0  0  0  0  0  0
   12.7892    8.5296   35.0301 H   0  0  0  0  0  0
   11.0954    9.2181   33.5177 H   0  0  0  0  0  0
   11.9001   11.8846   37.5800 H   0  0  0  0  0  0
   10.3556   10.3096   32.1866 H   0  0  0  0  0  0
    8.0612   12.8958   29.9910 H   0  0  0  0  0  0
    8.6311   13.3881   31.5527 H   0  0  0  0  0  0
   10.9918   12.8546   30.7909 H   0  0  0  0  0  0
   10.3845   12.4730   29.2019 H   0  0  0  0  0  0
   11.4493   16.2141   29.3198 H   0  0  0  0  0  0
   13.8831   16.0414   31.9964 H   0  0  0  0  0  0
   12.6951   17.0581   31.1981 H   0  0  0  0  0  0
   12.1920   15.8282   32.3480 H   0  0  0  0  0  0
   13.9699   13.1851   29.4463 H   0  0  0  0  0  0
    7.1727   10.5256   29.4312 H   0  0  0  0  0  0
  1 44  1  0  0  0
  1 45  1  0  0  0
  1 46  1  0  0  0
  1  2  1  0  0  0
  2  3  2  0  0  0
  2 11  1  0  0  0
  3  4  1  0  0  0
  4  9  2  0  0  0
  4  5  1  0  0  0
  5  6  2  0  0  0
  5 47  1  0  0  0
  6  7  1  0  0  0
  6 48  1  0  0  0
  7  8  2  0  0  0
  7 13  1  0  0  0
  8  9  1  0  0  0
  8 49  1  0  0  0
  9 10  1  0  0  0
 10 12  2  0  0  0
 10 11  1  0  0  0
 11 50  1  0  0  0
 13 14  1  0  0  0
 13 51  1  0  0  0
 13 52  1  0  0  0
 14 15  1  0  0  0
 14 18  1  0  0  0
 15 16  1  0  0  0
 15 53  1  0  0  0
 15 54  1  0  0  0
 16 17  3  0  0  0
 17 55  1  0  0  0
 18 23  1  0  0  0
 18 19  2  0  0  0
 19 20  1  0  0  0
 19 56  1  0  0  0
 20 21  2  0  0  0
 20 57  1  0  0  0
 21 22  1  0  0  0
 21 25  1  0  0  0
 22 23  2  0  0  0
 22 24  1  0  0  0
 23 58  1  0  0  0
 25 26  2  0  0  0
 25 27  1  0  0  0
 27 28  1  0  0  0
 27 59  1  0  0  0
 28 42  1  0  0  0
 28 29  1  0  0  0
 28 39  1  0  0  0
 29 30  1  0  0  0
 29 60  1  0  0  0
 29 61  1  0  0  0
 30 31  1  0  0  0
 30 62  1  0  0  0
 30 63  1  0  0  0
 31 32  2  0  0  0
 31 33  1  0  0  0
 33 34  1  0  0  0
 33 64  1  0  0  0
 34 43  1  0  0  0
 34 35  1  0  0  0
 34 36  1  0  0  0
 35 65  1  0  0  0
 35 66  1  0  0  0
 35 67  1  0  0  0
 36 37  2  0  0  0
 36 38  1  0  0  0
 38 68  1  0  0  0
 39 40  2  0  0  0
 39 41  1  0  0  0
 41 69  1  0  0  0
M  END
> <s_m_entry_id>
41954

> <s_m_entry_name>
ligand_docking-pose.314

> <s_m_Source_Path>
/home/csk/Desktop/cluster/DUD-E-result/tysy

> <s_m_Source_File>
ligand_docking-pose.sdf

> <i_m_Source_File_Index>
314

> <i_lp_mmshare_version>
53161

> <i_f3d_flags>
0

> <r_lp_tautomer_probability>
0.883938

> <s_lp_Force_Field>
OPLS_2005

> <r_lp_Energy>
20.485316

> <b_lp_Chiralities_Consistent>
1

> <s_lp_Variant>
183727-1

> <s_i_glide_gridfile>
glide-grid_1syn

> <i_i_glide_lignum>
608

> <i_i_glide_rotatable_bonds>
17

> <r_i_docking_score>
-6.83615825521735

> <r_i_glide_ligand_efficiency>
-0.166735567200423

> <r_i_glide_ligand_efficiency_sa>
-0.574940456693799

> <r_i_glide_ligand_efficiency_ln>
-1.45031372353603

> <r_i_glide_gscore>
-6.83615825521735

> <r_i_glide_lipo>
-2.3626164151225

> <r_i_glide_hbond>
-0.151278244279427

> <r_i_glide_metal>
0

> <r_i_glide_rewards>
0.887138590291243

> <r_i_glide_evdw>
-45.9491958618164

> <r_i_glide_ecoul>
-24.1160316467285

> <r_i_glide_erotb>
0.891018842221742

> <r_i_glide_esite>
-0.185556488228317

> <r_i_glide_emodel>
-84.466786410298

> <r_i_glide_energy>
-70.0652275085449

> <r_i_glide_einternal>
14.0194597244263

> <i_i_glide_confnum>
63

> <i_i_glide_posenum>
69

> <r_i_glide_eff_state_penalty>
0

> <s_user_duplicate_titles>
183727

> <s_m_subgroup_title>
dock_pv

> <s_m_subgroupid>
dock_pv1

> <b_m_subgroup_collapsed>
0

$$$$
